/*---------------------------------------------------------------------------*\
  =========                 |
  \\      /  F ield         | OpenFOAM: The Open Source CFD Toolbox
   \\    /   O peration     | Website:  https://openfoam.org
    \\  /    A nd           | Version:  8
     \\/     M anipulation  |
\*---------------------------------------------------------------------------*/
Build  : 8-1c9b5879390b
Exec   : rhoDarcyFoam
Date   : May 21 2021
Time   : 16:17:33
Host   : "ord2249"
PID    : 185536
I/O    : uncollated
Case   : /home/juan/testrhoDarcyFoam/HenryHet2DHighVar/transient
nProcs : 1
sigFpe : Enabling floating point exception trapping (FOAM_SIGFPE).
fileModificationChecking : Monitoring run-time modified files using timeStampMaster (fileModificationSkew 10)
allowSystemOperations : Allowing user-supplied system call operations

// * * * * * * * * * * * * * * * * * * * * * * * * * * * * * * * * * * * * * //
Create time

Create mesh for time = 0


PIMPLE: Convergence criteria found
        p: tolerance 1e-08
        c: tolerance 1e-08


PIMPLE: Corrector convergence criteria found
        p: tolerance 1e-08, relTol 0.0001
        c: tolerance 1e-08, relTol 0.0001
        Calculations will do 500 corrections if the convergence criteria are not met


PIMPLE: Operating solver in transient mode with 500 outer correctors



Reading g

Reading field c

Reading transportProperties

Creating viscosity mu

Selecting viscosity model => constantViscosity


Creating density rho

Selecting density model => linearDensity


Reading hRef

Calculating field g.h

Incompressibility is 1


Standard compressibility is 0

hydrostaticPressure is 0

Reading field p
Using dynamicCode for fixedValueFvPatchField right at line 20140 in "/home/juan/testrhoDarcyFoam/HenryHet2DHighVar/transient/0/p/boundaryField/right"
Creating new library in "dynamicCode/right/platforms/linux64GccDPInt32Opt/lib/libright_52e5cdee863cd79fe6db56ac6210a02c31b71429.so"
Invoking "wmake -s libso /home/juan/testrhoDarcyFoam/HenryHet2DHighVar/transient/dynamicCode/right"
wmake libso /home/juan/testrhoDarcyFoam/HenryHet2DHighVar/transient/dynamicCode/right
    ln: ./lnInclude
    wmkdep: fixedValueFvPatchFieldTemplate.C
    Ctoo: fixedValueFvPatchFieldTemplate.C
    ld: /home/juan/testrhoDarcyFoam/HenryHet2DHighVar/transient/dynamicCode/right/../platforms/linux64GccDPInt32Opt/lib/libright_52e5cdee863cd79fe6db56ac6210a02c31b71429.so

Reading field p_rgh

Reading porosity beta

Reading storativity Ss

Reading permeability field K

Calculating face flux field phi

Calculating field U

dispersionModel is 0
Mean dispersion tensor is (6.6e-11 0 0 6.6e-11 0 6.6e-11)
No finite volume options present
Courant Number mean: 66.5544 max: 503144

Time = 3.97501e-06

PIMPLE: Iteration 1
DILUPBiCGStab:  Solving for c, Initial residual = 1, Final residual = 8.88336e-08, No Iterations 1
GAMG:  Solving for p, Initial residual = 0.000351332, Final residual = 1.34677e-07, No Iterations 2
PIMPLE: Iteration 2
DILUPBiCGStab:  Solving for c, Initial residual = 0.334342, Final residual = 1.09811e-08, No Iterations 1
GAMG:  Solving for p, Initial residual = 0.00033639, Final residual = 8.61412e-08, No Iterations 2
PIMPLE: Iteration 3
DILUPBiCGStab:  Solving for c, Initial residual = 0.446317, Final residual = 2.24574e-09, No Iterations 1
GAMG:  Solving for p, Initial residual = 3.55778e-07, Final residual = 2.78439e-10, No Iterations 9
PIMPLE: Iteration 4
DILUPBiCGStab:  Solving for c, Initial residual = 0.000721118, Final residual = 2.67198e-14, No Iterations 1
GAMG:  Solving for p, Initial residual = 3.061e-10, Final residual = 9.62365e-11, No Iterations 6
PIMPLE: Iteration 5
DILUPBiCGStab:  Solving for c, Initial residual = 4.47702e-07, Final residual = 3.6119e-18, No Iterations 1
GAMG:  Solving for p, Initial residual = 9.62366e-11, Final residual = 9.62366e-11, No Iterations 0
PIMPLE: Converged 
        Doing final iteration
PIMPLE: Iteration 6
DILUPBiCGStab:  Solving for c, Initial residual = 1.57652e-11, Final residual = 1.57652e-11, No Iterations 0
GAMG:  Solving for p, Initial residual = 9.62366e-11, Final residual = 9.62366e-11, No Iterations 0
PIMPLE: Converged in 6 iterations
time step continuity errors : sum local = 5.74266e-14, global = -2.22481e-15, cumulative = -2.22481e-15
Courant Number mean: 9.63285e-08 max: 0.000178831
deltaT = 4.77001e-06
Mean velocity  = (6.59998e-05 0 8.44481e-05)

ExecutionTime = 0.31 s  ClockTime = 5 s


Time = 8.74501e-06

PIMPLE: Iteration 1
DILUPBiCGStab:  Solving for c, Initial residual = 0.231224, Final residual = 5.67699e-12, No Iterations 1
GAMG:  Solving for p, Initial residual = 1.37485e-08, Final residual = 7.04872e-11, No Iterations 3
PIMPLE: Iteration 2
DILUPBiCGStab:  Solving for c, Initial residual = 1.39209e-05, Final residual = 4.54636e-16, No Iterations 1
GAMG:  Solving for p, Initial residual = 7.21535e-11, Final residual = 7.21535e-11, No Iterations 0
PIMPLE: Converged 
        Doing final iteration
PIMPLE: Iteration 3
DILUPBiCGStab:  Solving for c, Initial residual = 3.99087e-11, Final residual = 3.99087e-11, No Iterations 0
GAMG:  Solving for p, Initial residual = 7.21535e-11, Final residual = 7.21535e-11, No Iterations 0
PIMPLE: Converged in 3 iterations
time step continuity errors : sum local = 5.16677e-14, global = -4.93776e-16, cumulative = -2.71859e-15
Courant Number mean: 1.1559e-07 max: 0.00021455
deltaT = 5.72401e-06
Mean velocity  = (6.60001e-05 0 8.44422e-05)

ExecutionTime = 0.36 s  ClockTime = 5 s


Time = 1.4469e-05

PIMPLE: Iteration 1
DILUPBiCGStab:  Solving for c, Initial residual = 0.140924, Final residual = 4.98635e-12, No Iterations 1
GAMG:  Solving for p, Initial residual = 1.64484e-08, Final residual = 6.08029e-11, No Iterations 3
PIMPLE: Iteration 2
DILUPBiCGStab:  Solving for c, Initial residual = 1.21216e-05, Final residual = 5.88483e-16, No Iterations 1
GAMG:  Solving for p, Initial residual = 6.30069e-11, Final residual = 6.30069e-11, No Iterations 0
PIMPLE: Converged 
        Doing final iteration
PIMPLE: Iteration 3
DILUPBiCGStab:  Solving for c, Initial residual = 5.10271e-11, Final residual = 5.10271e-11, No Iterations 0
GAMG:  Solving for p, Initial residual = 6.30069e-11, Final residual = 6.30069e-11, No Iterations 0
PIMPLE: Converged in 3 iterations
time step continuity errors : sum local = 5.41409e-14, global = -1.34024e-15, cumulative = -4.05883e-15
Courant Number mean: 1.38701e-07 max: 0.000257391
deltaT = 6.86881e-06
Mean velocity  = (6.60001e-05 0 8.44351e-05)

ExecutionTime = 0.41 s  ClockTime = 5 s


Time = 2.13378e-05

PIMPLE: Iteration 1
DILUPBiCGStab:  Solving for c, Initial residual = 0.106316, Final residual = 5.59159e-12, No Iterations 1
GAMG:  Solving for p, Initial residual = 1.97092e-08, Final residual = 4.59766e-11, No Iterations 2
PIMPLE: Iteration 2
DILUPBiCGStab:  Solving for c, Initial residual = 1.18537e-05, Final residual = 8.59316e-16, No Iterations 1
GAMG:  Solving for p, Initial residual = 4.92054e-11, Final residual = 4.92054e-11, No Iterations 0
PIMPLE: Iteration 3
DILUPBiCGStab:  Solving for c, Initial residual = 7.31363e-11, Final residual = 7.31363e-11, No Iterations 0
GAMG:  Solving for p, Initial residual = 4.92054e-11, Final residual = 4.92054e-11, No Iterations 0
PIMPLE: Converged 
        Doing final iteration
PIMPLE: Iteration 4
DILUPBiCGStab:  Solving for c, Initial residual = 7.31363e-11, Final residual = 7.31363e-11, No Iterations 0
GAMG:  Solving for p, Initial residual = 4.92054e-11, Final residual = 4.92054e-11, No Iterations 0
PIMPLE: Converged in 4 iterations
time step continuity errors : sum local = 5.07378e-14, global = 2.32263e-15, cumulative = -1.7362e-15
Courant Number mean: 1.66432e-07 max: 0.000308772
deltaT = 8.24257e-06
Mean velocity  = (6.60001e-05 0 8.44265e-05)

ExecutionTime = 0.47 s  ClockTime = 5 s


Time = 2.95804e-05

PIMPLE: Iteration 1
DILUPBiCGStab:  Solving for c, Initial residual = 0.0882496, Final residual = 6.93382e-12, No Iterations 1
GAMG:  Solving for p, Initial residual = 2.36154e-08, Final residual = 4.2176e-11, No Iterations 2
PIMPLE: Iteration 2
DILUPBiCGStab:  Solving for c, Initial residual = 1.2321e-05, Final residual = 1.34099e-15, No Iterations 1
GAMG:  Solving for p, Initial residual = 4.72179e-11, Final residual = 4.72179e-11, No Iterations 0
PIMPLE: Iteration 3
DILUPBiCGStab:  Solving for c, Initial residual = 1.1119e-10, Final residual = 4.86253e-21, No Iterations 1
GAMG:  Solving for p, Initial residual = 4.72179e-11, Final residual = 4.72179e-11, No Iterations 0
PIMPLE: Converged 
        Doing final iteration
PIMPLE: Iteration 4
DILUPBiCGStab:  Solving for c, Initial residual = 1.98587e-14, Final residual = 1.98587e-14, No Iterations 0
GAMG:  Solving for p, Initial residual = 4.72179e-11, Final residual = 4.72179e-11, No Iterations 0
PIMPLE: Converged in 4 iterations
time step continuity errors : sum local = 5.84258e-14, global = -2.30874e-16, cumulative = -1.96707e-15
Courant Number mean: 1.99706e-07 max: 0.000370385
deltaT = 9.89108e-06
Mean velocity  = (6.60001e-05 0 8.44161e-05)

ExecutionTime = 0.52 s  ClockTime = 5 s


Time = 3.94715e-05

PIMPLE: Iteration 1
DILUPBiCGStab:  Solving for c, Initial residual = 0.077298, Final residual = 9.12395e-12, No Iterations 1
GAMG:  Solving for p, Initial residual = 2.83158e-08, Final residual = 4.18973e-11, No Iterations 2
PIMPLE: Iteration 2
DILUPBiCGStab:  Solving for c, Initial residual = 1.33168e-05, Final residual = 2.1891e-15, No Iterations 1
GAMG:  Solving for p, Initial residual = 4.93746e-11, Final residual = 4.93746e-11, No Iterations 0
PIMPLE: Iteration 3
DILUPBiCGStab:  Solving for c, Initial residual = 1.75137e-10, Final residual = 1.10652e-20, No Iterations 1
GAMG:  Solving for p, Initial residual = 4.93746e-11, Final residual = 4.93746e-11, No Iterations 0
PIMPLE: Converged 
        Doing final iteration
PIMPLE: Iteration 4
DILUPBiCGStab:  Solving for c, Initial residual = 3.98897e-14, Final residual = 3.98897e-14, No Iterations 0
GAMG:  Solving for p, Initial residual = 4.93746e-11, Final residual = 4.93746e-11, No Iterations 0
PIMPLE: Converged in 4 iterations
time step continuity errors : sum local = 7.33137e-14, global = -2.73051e-15, cumulative = -4.69758e-15
Courant Number mean: 2.39628e-07 max: 0.000444259
deltaT = 1.18693e-05
Mean velocity  = (6.60001e-05 0 8.44036e-05)

ExecutionTime = 0.59 s  ClockTime = 5 s


Time = 5.13408e-05

PIMPLE: Iteration 1
DILUPBiCGStab:  Solving for c, Initial residual = 0.0700489, Final residual = 1.24982e-11, No Iterations 1
GAMG:  Solving for p, Initial residual = 3.39555e-08, Final residual = 4.27641e-11, No Iterations 2
PIMPLE: Iteration 2
DILUPBiCGStab:  Solving for c, Initial residual = 1.47695e-05, Final residual = 3.69073e-15, No Iterations 1
GAMG:  Solving for p, Initial residual = 5.37302e-11, Final residual = 5.37302e-11, No Iterations 0
PIMPLE: Iteration 3
DILUPBiCGStab:  Solving for c, Initial residual = 2.82329e-10, Final residual = 2.6139e-20, No Iterations 1
GAMG:  Solving for p, Initial residual = 5.37302e-11, Final residual = 5.37302e-11, No Iterations 0
PIMPLE: Converged 
        Doing final iteration
PIMPLE: Iteration 4
DILUPBiCGStab:  Solving for c, Initial residual = 8.11171e-14, Final residual = 8.11171e-14, No Iterations 0
GAMG:  Solving for p, Initial residual = 5.37302e-11, Final residual = 5.37302e-11, No Iterations 0
PIMPLE: Converged in 4 iterations
time step continuity errors : sum local = 9.57358e-14, global = -5.15815e-15, cumulative = -9.85573e-15
Courant Number mean: 2.87526e-07 max: 0.000532819
deltaT = 1.42432e-05
Mean velocity  = (6.60001e-05 0 8.43886e-05)

ExecutionTime = 0.64 s  ClockTime = 5 s


Time = 6.55839e-05

PIMPLE: Iteration 1
DILUPBiCGStab:  Solving for c, Initial residual = 0.0649666, Final residual = 1.76389e-11, No Iterations 1
GAMG:  Solving for p, Initial residual = 4.07172e-08, Final residual = 4.4157e-11, No Iterations 2
PIMPLE: Iteration 2
DILUPBiCGStab:  Solving for c, Initial residual = 1.66842e-05, Final residual = 6.38127e-15, No Iterations 1
GAMG:  Solving for p, Initial residual = 6.01619e-11, Final residual = 6.01619e-11, No Iterations 0
PIMPLE: Iteration 3
DILUPBiCGStab:  Solving for c, Initial residual = 4.62502e-10, Final residual = 6.36189e-20, No Iterations 1
GAMG:  Solving for p, Initial residual = 6.01617e-11, Final residual = 6.01617e-11, No Iterations 0
PIMPLE: Converged 
        Doing final iteration
PIMPLE: Iteration 4
DILUPBiCGStab:  Solving for c, Initial residual = 1.66029e-13, Final residual = 1.66029e-13, No Iterations 0
GAMG:  Solving for p, Initial residual = 6.01617e-11, Final residual = 6.01617e-11, No Iterations 0
PIMPLE: Converged in 4 iterations
time step continuity errors : sum local = 1.28636e-13, global = -8.21787e-15, cumulative = -1.80736e-14
Courant Number mean: 3.44992e-07 max: 0.000638962
deltaT = 1.70918e-05
Mean velocity  = (6.60001e-05 0 8.43706e-05)

ExecutionTime = 0.71 s  ClockTime = 5 s


Time = 8.26757e-05

PIMPLE: Iteration 1
DILUPBiCGStab:  Solving for c, Initial residual = 0.0612575, Final residual = 2.54912e-11, No Iterations 1
GAMG:  Solving for p, Initial residual = 4.88217e-08, Final residual = 4.60496e-11, No Iterations 2
PIMPLE: Iteration 2
DILUPBiCGStab:  Solving for c, Initial residual = 1.9106e-05, Final residual = 1.12651e-14, No Iterations 1
GAMG:  Solving for p, Initial residual = 6.93527e-11, Final residual = 6.93527e-11, No Iterations 0
PIMPLE: Iteration 3
DILUPBiCGStab:  Solving for c, Initial residual = 7.66494e-10, Final residual = 1.58762e-19, No Iterations 1
GAMG:  Solving for p, Initial residual = 6.93524e-11, Final residual = 6.93524e-11, No Iterations 0
PIMPLE: Converged 
        Doing final iteration
PIMPLE: Iteration 4
DILUPBiCGStab:  Solving for c, Initial residual = 3.41156e-13, Final residual = 3.41156e-13, No Iterations 0
GAMG:  Solving for p, Initial residual = 6.93524e-11, Final residual = 6.93524e-11, No Iterations 0
PIMPLE: Converged in 4 iterations
time step continuity errors : sum local = 1.77945e-13, global = -1.24092e-14, cumulative = -3.04828e-14
Courant Number mean: 4.13933e-07 max: 0.000766149
deltaT = 2.05101e-05
Mean velocity  = (6.60001e-05 0 8.4349e-05)

ExecutionTime = 0.76 s  ClockTime = 5 s


Time = 0.000103186

PIMPLE: Iteration 1
DILUPBiCGStab:  Solving for c, Initial residual = 0.0584699, Final residual = 3.75746e-11, No Iterations 1
GAMG:  Solving for p, Initial residual = 5.8533e-08, Final residual = 4.8487e-11, No Iterations 2
PIMPLE: Iteration 2
DILUPBiCGStab:  Solving for c, Initial residual = 2.21093e-05, Final residual = 2.02442e-14, No Iterations 1
GAMG:  Solving for p, Initial residual = 8.23708e-11, Final residual = 8.23708e-11, No Iterations 0
PIMPLE: Iteration 3
DILUPBiCGStab:  Solving for c, Initial residual = 1.28129e-09, Final residual = 4.04883e-19, No Iterations 1
GAMG:  Solving for p, Initial residual = 8.237e-11, Final residual = 8.237e-11, No Iterations 0
PIMPLE: Converged 
        Doing final iteration
PIMPLE: Iteration 4
DILUPBiCGStab:  Solving for c, Initial residual = 7.03787e-13, Final residual = 7.03787e-13, No Iterations 0
GAMG:  Solving for p, Initial residual = 8.237e-11, Final residual = 8.237e-11, No Iterations 0
PIMPLE: Converged in 4 iterations
time step continuity errors : sum local = 2.53614e-13, global = -1.83125e-14, cumulative = -4.87953e-14
Courant Number mean: 4.96638e-07 max: 0.000918507
deltaT = 2.46122e-05
Mean velocity  = (6.60001e-05 0 8.43231e-05)

ExecutionTime = 0.83 s  ClockTime = 5 s


Time = 0.000127798

PIMPLE: Iteration 1
DILUPBiCGStab:  Solving for c, Initial residual = 0.0563274, Final residual = 5.63406e-11, No Iterations 1
GAMG:  Solving for p, Initial residual = 7.01663e-08, Final residual = 5.15289e-11, No Iterations 2
PIMPLE: Iteration 2
DILUPBiCGStab:  Solving for c, Initial residual = 2.57963e-05, Final residual = 3.69539e-14, No Iterations 1
GAMG:  Solving for p, Initial residual = 1.00759e-10, Final residual = 6.25003e-11, No Iterations 2
PIMPLE: Iteration 3
DILUPBiCGStab:  Solving for c, Initial residual = 1.58625e-08, Final residual = 1.78633e-17, No Iterations 1
GAMG:  Solving for p, Initial residual = 6.25006e-11, Final residual = 6.25006e-11, No Iterations 0
PIMPLE: Converged 
        Doing final iteration
PIMPLE: Iteration 4
DILUPBiCGStab:  Solving for c, Initial residual = 1.98141e-12, Final residual = 1.98141e-12, No Iterations 0
GAMG:  Solving for p, Initial residual = 6.25006e-11, Final residual = 6.25006e-11, No Iterations 0
PIMPLE: Converged in 4 iterations
time step continuity errors : sum local = 2.30923e-13, global = 3.99397e-15, cumulative = -4.48013e-14
Courant Number mean: 5.95848e-07 max: 0.00110096
deltaT = 2.95346e-05
Mean velocity  = (6.6e-05 0 8.42924e-05)

ExecutionTime = 0.89 s  ClockTime = 6 s


Time = 0.000157333

PIMPLE: Iteration 1
DILUPBiCGStab:  Solving for c, Initial residual = 0.0546514, Final residual = 8.57666e-11, No Iterations 1
GAMG:  Solving for p, Initial residual = 8.41586e-08, Final residual = 5.59868e-11, No Iterations 2
PIMPLE: Iteration 2
DILUPBiCGStab:  Solving for c, Initial residual = 3.03117e-05, Final residual = 6.84332e-14, No Iterations 1
GAMG:  Solving for p, Initial residual = 1.27528e-10, Final residual = 4.57911e-11, No Iterations 1
PIMPLE: Iteration 3
DILUPBiCGStab:  Solving for c, Initial residual = 1.98614e-08, Final residual = 3.74749e-17, No Iterations 1
GAMG:  Solving for p, Initial residual = 4.57912e-11, Final residual = 4.57912e-11, No Iterations 0
PIMPLE: Converged 
        Doing final iteration
PIMPLE: Iteration 4
DILUPBiCGStab:  Solving for c, Initial residual = 3.98171e-12, Final residual = 3.98171e-12, No Iterations 0
GAMG:  Solving for p, Initial residual = 4.57912e-11, Final residual = 4.57912e-11, No Iterations 0
PIMPLE: Converged in 4 iterations
time step continuity errors : sum local = 2.03027e-13, global = 1.90531e-14, cumulative = -2.57483e-14
Courant Number mean: 7.14847e-07 max: 0.00131934
deltaT = 3.54415e-05
Mean velocity  = (6.60001e-05 0 8.42551e-05)

ExecutionTime = 0.95 s  ClockTime = 6 s


Time = 0.000192774

PIMPLE: Iteration 1
DILUPBiCGStab:  Solving for c, Initial residual = 0.0533211, Final residual = 1.32349e-10, No Iterations 1
GAMG:  Solving for p, Initial residual = 1.00832e-07, Final residual = 5.45822e-11, No Iterations 2
PIMPLE: Iteration 2
DILUPBiCGStab:  Solving for c, Initial residual = 3.58006e-05, Final residual = 1.28281e-13, No Iterations 1
GAMG:  Solving for p, Initial residual = 1.58485e-10, Final residual = 2.74411e-11, No Iterations 1
PIMPLE: Iteration 3
DILUPBiCGStab:  Solving for c, Initial residual = 3.0631e-08, Final residual = 9.69687e-17, No Iterations 1
GAMG:  Solving for p, Initial residual = 2.74412e-11, Final residual = 2.74412e-11, No Iterations 0
PIMPLE: Converged 
        Doing final iteration
PIMPLE: Iteration 4
DILUPBiCGStab:  Solving for c, Initial residual = 8.34162e-12, Final residual = 8.34162e-12, No Iterations 0
GAMG:  Solving for p, Initial residual = 2.74412e-11, Final residual = 2.74412e-11, No Iterations 0
PIMPLE: Converged in 4 iterations
time step continuity errors : sum local = 1.46e-13, global = 2.03499e-14, cumulative = -5.3983e-15
Courant Number mean: 8.57573e-07 max: 0.00158062
deltaT = 4.25298e-05
Mean velocity  = (6.60001e-05 0 8.42103e-05)

ExecutionTime = 1.02 s  ClockTime = 6 s


Time = 0.000235304

PIMPLE: Iteration 1
DILUPBiCGStab:  Solving for c, Initial residual = 0.0522516, Final residual = 2.06756e-10, No Iterations 1
GAMG:  Solving for p, Initial residual = 1.20788e-07, Final residual = 5.19064e-11, No Iterations 2
PIMPLE: Iteration 2
DILUPBiCGStab:  Solving for c, Initial residual = 4.24866e-05, Final residual = 2.43227e-13, No Iterations 1
GAMG:  Solving for p, Initial residual = 2.02851e-10, Final residual = 2.65538e-11, No Iterations 1
PIMPLE: Iteration 3
DILUPBiCGStab:  Solving for c, Initial residual = 4.67283e-08, Final residual = 2.36307e-16, No Iterations 1
GAMG:  Solving for p, Initial residual = 2.6554e-11, Final residual = 2.6554e-11, No Iterations 0
PIMPLE: Converged 
        Doing final iteration
PIMPLE: Iteration 4
DILUPBiCGStab:  Solving for c, Initial residual = 1.74061e-11, Final residual = 1.74061e-11, No Iterations 0
GAMG:  Solving for p, Initial residual = 2.6554e-11, Final residual = 2.6554e-11, No Iterations 0
PIMPLE: Converged in 4 iterations
time step continuity errors : sum local = 1.69536e-13, global = 3.00753e-14, cumulative = 2.4677e-14
Courant Number mean: 1.02874e-06 max: 0.00189302
deltaT = 5.10358e-05
Mean velocity  = (6.60001e-05 0 8.41566e-05)

ExecutionTime = 1.08 s  ClockTime = 6 s


Time = 0.00028634

PIMPLE: Iteration 1
DILUPBiCGStab:  Solving for c, Initial residual = 0.0513817, Final residual = 3.26603e-10, No Iterations 1
GAMG:  Solving for p, Initial residual = 1.44673e-07, Final residual = 5.63777e-11, No Iterations 2
PIMPLE: Iteration 2
DILUPBiCGStab:  Solving for c, Initial residual = 5.06264e-05, Final residual = 4.65855e-13, No Iterations 1
GAMG:  Solving for p, Initial residual = 2.75757e-10, Final residual = 2.57931e-11, No Iterations 1
PIMPLE: Iteration 3
DILUPBiCGStab:  Solving for c, Initial residual = 7.07536e-08, Final residual = 5.83059e-16, No Iterations 1
GAMG:  Solving for p, Initial residual = 2.59687e-11, Final residual = 2.59687e-11, No Iterations 0
PIMPLE: Converged 
        Doing final iteration
PIMPLE: Iteration 4
DILUPBiCGStab:  Solving for c, Initial residual = 3.64909e-11, Final residual = 3.64909e-11, No Iterations 0
GAMG:  Solving for p, Initial residual = 2.59687e-11, Final residual = 2.59687e-11, No Iterations 0
PIMPLE: Converged in 4 iterations
time step continuity errors : sum local = 1.98963e-13, global = 3.64069e-14, cumulative = 6.10839e-14
Courant Number mean: 1.23398e-06 max: 0.00226626
deltaT = 6.12429e-05
Mean velocity  = (6.60001e-05 0 8.40921e-05)

ExecutionTime = 1.14 s  ClockTime = 6 s


Time = 0.000347583

PIMPLE: Iteration 1
DILUPBiCGStab:  Solving for c, Initial residual = 0.0506658, Final residual = 5.21101e-10, No Iterations 1
GAMG:  Solving for p, Initial residual = 1.73216e-07, Final residual = 6.34762e-11, No Iterations 2
PIMPLE: Iteration 2
DILUPBiCGStab:  Solving for c, Initial residual = 6.05466e-05, Final residual = 9.00337e-13, No Iterations 1
GAMG:  Solving for p, Initial residual = 3.82528e-10, Final residual = 2.75436e-11, No Iterations 1
PIMPLE: Iteration 3
DILUPBiCGStab:  Solving for c, Initial residual = 1.06762e-07, Final residual = 1.42216e-15, No Iterations 1
GAMG:  Solving for p, Initial residual = 2.78923e-11, Final residual = 2.78923e-11, No Iterations 0
PIMPLE: Converged 
        Doing final iteration
PIMPLE: Iteration 4
DILUPBiCGStab:  Solving for c, Initial residual = 7.64524e-11, Final residual = 7.64524e-11, No Iterations 0
GAMG:  Solving for p, Initial residual = 2.78923e-11, Final residual = 2.78923e-11, No Iterations 0
PIMPLE: Converged in 4 iterations
time step continuity errors : sum local = 2.56436e-13, global = 5.02656e-14, cumulative = 1.1135e-13
Courant Number mean: 1.48005e-06 max: 0.00271182
deltaT = 7.34915e-05
Mean velocity  = (6.60002e-05 0 8.40148e-05)

ExecutionTime = 1.2 s  ClockTime = 6 s


Time = 0.000421074

PIMPLE: Iteration 1
DILUPBiCGStab:  Solving for c, Initial residual = 0.0500688, Final residual = 8.38855e-10, No Iterations 1
GAMG:  Solving for p, Initial residual = 2.07296e-07, Final residual = 7.28803e-11, No Iterations 2
PIMPLE: Iteration 2
DILUPBiCGStab:  Solving for c, Initial residual = 7.2652e-05, Final residual = 1.75379e-12, No Iterations 1
GAMG:  Solving for p, Initial residual = 5.37274e-10, Final residual = 3.08788e-11, No Iterations 1
PIMPLE: Iteration 3
DILUPBiCGStab:  Solving for c, Initial residual = 1.60962e-07, Final residual = 3.46797e-15, No Iterations 1
GAMG:  Solving for p, Initial residual = 3.15451e-11, Final residual = 3.15451e-11, No Iterations 0
PIMPLE: Converged 
        Doing final iteration
PIMPLE: Iteration 4
DILUPBiCGStab:  Solving for c, Initial residual = 1.60308e-10, Final residual = 1.01412e-18, No Iterations 1
GAMG:  Solving for p, Initial residual = 3.15444e-11, Final residual = 3.15444e-11, No Iterations 0
PIMPLE: Converged in 4 iterations
time step continuity errors : sum local = 3.48009e-13, global = 7.29135e-14, cumulative = 1.84263e-13
Courant Number mean: 1.77501e-06 max: 0.00324313
deltaT = 8.81897e-05
Mean velocity  = (6.60002e-05 0 8.3922e-05)

ExecutionTime = 1.27 s  ClockTime = 6 s


Time = 0.000509264

PIMPLE: Iteration 1
DILUPBiCGStab:  Solving for c, Initial residual = 0.0495633, Final residual = 1.36096e-09, No Iterations 1
GAMG:  Solving for p, Initial residual = 2.47938e-07, Final residual = 8.43079e-11, No Iterations 2
PIMPLE: Iteration 2
DILUPBiCGStab:  Solving for c, Initial residual = 8.74474e-05, Final residual = 3.43943e-12, No Iterations 1
GAMG:  Solving for p, Initial residual = 7.60911e-10, Final residual = 3.55802e-11, No Iterations 1
PIMPLE: Iteration 3
DILUPBiCGStab:  Solving for c, Initial residual = 2.42925e-07, Final residual = 8.47728e-15, No Iterations 1
GAMG:  Solving for p, Initial residual = 3.68774e-11, Final residual = 3.68774e-11, No Iterations 0
PIMPLE: Converged 
        Doing final iteration
PIMPLE: Iteration 4
DILUPBiCGStab:  Solving for c, Initial residual = 3.36495e-10, Final residual = 3.62798e-18, No Iterations 1
GAMG:  Solving for p, Initial residual = 3.68757e-11, Final residual = 3.68757e-11, No Iterations 0
PIMPLE: Converged in 4 iterations
time step continuity errors : sum local = 4.88201e-13, global = 1.08656e-13, cumulative = 2.92919e-13
Courant Number mean: 2.12851e-06 max: 0.00387589
deltaT = 0.000105828
Mean velocity  = (6.60002e-05 0 8.38108e-05)

ExecutionTime = 1.33 s  ClockTime = 6 s


Time = 0.000615092

PIMPLE: Iteration 1
DILUPBiCGStab:  Solving for c, Initial residual = 0.0491276, Final residual = 2.22296e-09, No Iterations 1
GAMG:  Solving for p, Initial residual = 2.9634e-07, Final residual = 9.79871e-11, No Iterations 2
PIMPLE: Iteration 2
DILUPBiCGStab:  Solving for c, Initial residual = 0.000105565, Final residual = 6.78347e-12, No Iterations 1
GAMG:  Solving for p, Initial residual = 1.08483e-09, Final residual = 4.20085e-11, No Iterations 1
PIMPLE: Iteration 3
DILUPBiCGStab:  Solving for c, Initial residual = 3.67383e-07, Final residual = 2.07863e-14, No Iterations 1
GAMG:  Solving for p, Initial residual = 4.45282e-11, Final residual = 4.45282e-11, No Iterations 0
PIMPLE: Converged 
        Doing final iteration
PIMPLE: Iteration 4
DILUPBiCGStab:  Solving for c, Initial residual = 7.07006e-10, Final residual = 1.31037e-17, No Iterations 1
GAMG:  Solving for p, Initial residual = 4.45241e-11, Final residual = 4.45241e-11, No Iterations 0
PIMPLE: Converged in 4 iterations
time step continuity errors : sum local = 7.07347e-13, global = 1.6517e-13, cumulative = 4.58089e-13
Courant Number mean: 2.55204e-06 max: 0.00462832
deltaT = 0.000126993
Mean velocity  = (6.60002e-05 0 8.36774e-05)

ExecutionTime = 1.39 s  ClockTime = 6 s


Time = 0.000742085

PIMPLE: Iteration 1
DILUPBiCGStab:  Solving for c, Initial residual = 0.0487434, Final residual = 3.65152e-09, No Iterations 1
GAMG:  Solving for p, Initial residual = 3.5388e-07, Final residual = 1.14288e-10, No Iterations 2
PIMPLE: Iteration 2
DILUPBiCGStab:  Solving for c, Initial residual = 0.000127792, Final residual = 1.34399e-11, No Iterations 1
GAMG:  Solving for p, Initial residual = 1.55541e-09, Final residual = 5.07946e-11, No Iterations 1
PIMPLE: Iteration 3
DILUPBiCGStab:  Solving for c, Initial residual = 5.5708e-07, Final residual = 5.11237e-14, No Iterations 1
GAMG:  Solving for p, Initial residual = 5.56551e-11, Final residual = 5.56551e-11, No Iterations 0
PIMPLE: Converged 
        Doing final iteration
PIMPLE: Iteration 4
DILUPBiCGStab:  Solving for c, Initial residual = 1.48652e-09, Final residual = 4.774e-17, No Iterations 1
GAMG:  Solving for p, Initial residual = 5.56451e-11, Final residual = 5.56451e-11, No Iterations 0
PIMPLE: Converged in 4 iterations
time step continuity errors : sum local = 1.06085e-12, global = 2.55206e-13, cumulative = 7.13295e-13
Courant Number mean: 3.05934e-06 max: 0.00552139
deltaT = 0.000152391
Mean velocity  = (6.60003e-05 0 8.35175e-05)

ExecutionTime = 1.45 s  ClockTime = 6 s


Time = 0.000894476

PIMPLE: Iteration 1
DILUPBiCGStab:  Solving for c, Initial residual = 0.0483956, Final residual = 6.02571e-09, No Iterations 1
GAMG:  Solving for p, Initial residual = 4.22137e-07, Final residual = 1.33659e-10, No Iterations 2
PIMPLE: Iteration 2
DILUPBiCGStab:  Solving for c, Initial residual = 0.000155111, Final residual = 2.67201e-11, No Iterations 1
GAMG:  Solving for p, Initial residual = 2.24033e-09, Final residual = 6.28514e-11, No Iterations 1
PIMPLE: Iteration 3
DILUPBiCGStab:  Solving for c, Initial residual = 8.47002e-07, Final residual = 1.2607e-13, No Iterations 1
GAMG:  Solving for p, Initial residual = 7.21595e-11, Final residual = 7.21595e-11, No Iterations 0
PIMPLE: Converged 
        Doing final iteration
PIMPLE: Iteration 4
DILUPBiCGStab:  Solving for c, Initial residual = 3.12633e-09, Final residual = 1.75239e-16, No Iterations 1
GAMG:  Solving for p, Initial residual = 7.21348e-11, Final residual = 7.21348e-11, No Iterations 0
PIMPLE: Converged in 4 iterations
time step continuity errors : sum local = 1.65022e-12, global = 4.0002e-13, cumulative = 1.11332e-12
Courant Number mean: 3.66675e-06 max: 0.00657904
deltaT = 0.00018287
Mean velocity  = (6.60003e-05 0 8.3326e-05)

ExecutionTime = 1.53 s  ClockTime = 6 s


Time = 0.00107735

PIMPLE: Iteration 1
DILUPBiCGStab:  Solving for c, Initial residual = 0.0480707, Final residual = 9.97858e-09, No Iterations 1
GAMG:  Solving for p, Initial residual = 5.02886e-07, Final residual = 1.56627e-10, No Iterations 2
PIMPLE: Iteration 2
DILUPBiCGStab:  Solving for c, Initial residual = 0.000188736, Final residual = 5.32458e-11, No Iterations 1
GAMG:  Solving for p, Initial residual = 3.23884e-09, Final residual = 7.95149e-11, No Iterations 1
PIMPLE: Iteration 3
DILUPBiCGStab:  Solving for c, Initial residual = 1.29121e-06, Final residual = 3.11487e-13, No Iterations 1
GAMG:  Solving for p, Initial residual = 9.72195e-11, Final residual = 9.72195e-11, No Iterations 0
PIMPLE: Converged 
        Doing final iteration
PIMPLE: Iteration 4
DILUPBiCGStab:  Solving for c, Initial residual = 6.57261e-09, Final residual = 6.47193e-16, No Iterations 1
GAMG:  Solving for p, Initial residual = 9.71594e-11, Final residual = 9.71594e-11, No Iterations 0
PIMPLE: Converged in 4 iterations
time step continuity errors : sum local = 2.66724e-12, global = 6.35619e-13, cumulative = 1.74893e-12
Courant Number mean: 4.3937e-06 max: 0.00782821
deltaT = 0.000219443
Mean velocity  = (6.60004e-05 0 8.30969e-05)

ExecutionTime = 1.58 s  ClockTime = 6 s


Time = 0.00129679

PIMPLE: Iteration 1
DILUPBiCGStab:  Solving for c, Initial residual = 0.0477566, Final residual = 1.65645e-08, No Iterations 1
GAMG:  Solving for p, Initial residual = 5.98084e-07, Final residual = 1.83784e-10, No Iterations 2
PIMPLE: Iteration 2
DILUPBiCGStab:  Solving for c, Initial residual = 0.000230159, Final residual = 1.06226e-10, No Iterations 1
GAMG:  Solving for p, Initial residual = 4.6956e-09, Final residual = 4.8855e-11, No Iterations 2
PIMPLE: Iteration 3
DILUPBiCGStab:  Solving for c, Initial residual = 2.00619e-06, Final residual = 7.81113e-13, No Iterations 1
GAMG:  Solving for p, Initial residual = 8.79007e-11, Final residual = 8.79007e-11, No Iterations 0
PIMPLE: Converged 
        Doing final iteration
PIMPLE: Iteration 4
DILUPBiCGStab:  Solving for c, Initial residual = 1.38553e-08, Final residual = 2.41923e-15, No Iterations 1
GAMG:  Solving for p, Initial residual = 8.77633e-11, Final residual = 8.77633e-11, No Iterations 0
PIMPLE: Converged in 4 iterations
time step continuity errors : sum local = 2.89119e-12, global = -2.76054e-13, cumulative = 1.47288e-12
Courant Number mean: 5.26328e-06 max: 0.00929883
deltaT = 0.000263331
Mean velocity  = (6.60002e-05 0 8.28229e-05)

ExecutionTime = 1.65 s  ClockTime = 6 s


Time = 0.00156012

PIMPLE: Iteration 1
DILUPBiCGStab:  Solving for c, Initial residual = 0.0474413, Final residual = 2.75327e-08, No Iterations 1
GAMG:  Solving for p, Initial residual = 7.09843e-07, Final residual = 1.97182e-10, No Iterations 2
PIMPLE: Iteration 2
DILUPBiCGStab:  Solving for c, Initial residual = 0.0002812, Final residual = 2.1192e-10, No Iterations 1
GAMG:  Solving for p, Initial residual = 6.80186e-09, Final residual = 3.78992e-11, No Iterations 2
PIMPLE: Iteration 3
DILUPBiCGStab:  Solving for c, Initial residual = 3.05107e-06, Final residual = 1.93078e-12, No Iterations 1
GAMG:  Solving for p, Initial residual = 1.09421e-10, Final residual = 4.4434e-11, No Iterations 1
PIMPLE: Converged 
        Doing final iteration
PIMPLE: Iteration 4
DILUPBiCGStab:  Solving for c, Initial residual = 5.39419e-08, Final residual = 2.51385e-14, No Iterations 1
GAMG:  Solving for p, Initial residual = 4.52726e-11, Final residual = 4.52726e-11, No Iterations 0
PIMPLE: Converged in 4 iterations
time step continuity errors : sum local = 1.78965e-12, global = 3.2507e-13, cumulative = 1.79795e-12
Courant Number mean: 6.30282e-06 max: 0.0110234
deltaT = 0.000315997
Mean velocity  = (6.60002e-05 0 8.24961e-05)

ExecutionTime = 1.72 s  ClockTime = 6 s


Time = 0.00187612

PIMPLE: Iteration 1
DILUPBiCGStab:  Solving for c, Initial residual = 0.0471137, Final residual = 4.57688e-08, No Iterations 1
GAMG:  Solving for p, Initial residual = 8.40198e-07, Final residual = 2.31357e-10, No Iterations 2
PIMPLE: Iteration 2
DILUPBiCGStab:  Solving for c, Initial residual = 0.000343931, Final residual = 4.22076e-10, No Iterations 1
GAMG:  Solving for p, Initial residual = 9.89032e-09, Final residual = 3.14129e-11, No Iterations 2
PIMPLE: Iteration 3
DILUPBiCGStab:  Solving for c, Initial residual = 4.66056e-06, Final residual = 4.76047e-12, No Iterations 1
GAMG:  Solving for p, Initial residual = 1.62183e-10, Final residual = 3.21238e-11, No Iterations 1
PIMPLE: Converged 
        Doing final iteration
PIMPLE: Iteration 4
DILUPBiCGStab:  Solving for c, Initial residual = 8.0306e-08, Final residual = 7.14611e-14, No Iterations 1
GAMG:  Solving for p, Initial residual = 3.40555e-11, Final residual = 3.40555e-11, No Iterations 0
PIMPLE: Converged in 4 iterations
time step continuity errors : sum local = 1.61553e-12, global = -4.81506e-14, cumulative = 1.7498e-12
Courant Number mean: 7.54469e-06 max: 0.0130363
deltaT = 0.000379196
Mean velocity  = (6.60001e-05 0 8.21067e-05)

ExecutionTime = 1.78 s  ClockTime = 6 s


Time = 0.00225531

PIMPLE: Iteration 1
DILUPBiCGStab:  Solving for c, Initial residual = 0.0467621, Final residual = 7.59956e-08, No Iterations 1
GAMG:  Solving for p, Initial residual = 9.91294e-07, Final residual = 2.58032e-10, No Iterations 2
PIMPLE: Iteration 2
DILUPBiCGStab:  Solving for c, Initial residual = 0.000420829, Final residual = 8.38236e-10, No Iterations 1
GAMG:  Solving for p, Initial residual = 1.43566e-08, Final residual = 3.03936e-11, No Iterations 2
PIMPLE: Iteration 3
DILUPBiCGStab:  Solving for c, Initial residual = 7.11639e-06, Final residual = 1.16915e-11, No Iterations 1
GAMG:  Solving for p, Initial residual = 2.69612e-10, Final residual = 2.73368e-11, No Iterations 1
PIMPLE: Iteration 4
DILUPBiCGStab:  Solving for c, Initial residual = 1.44616e-07, Final residual = 2.09091e-13, No Iterations 1
GAMG:  Solving for p, Initial residual = 3.17209e-11, Final residual = 3.17209e-11, No Iterations 0
PIMPLE: Converged 
        Doing final iteration
PIMPLE: Iteration 5
DILUPBiCGStab:  Solving for c, Initial residual = 2.55352e-09, Final residual = 2.38249e-15, No Iterations 1
GAMG:  Solving for p, Initial residual = 3.16812e-11, Final residual = 3.16812e-11, No Iterations 0
PIMPLE: Converged in 5 iterations
time step continuity errors : sum local = 1.80344e-12, global = -2.18654e-13, cumulative = 1.53115e-12
Courant Number mean: 9.02705e-06 max: 0.0153725
deltaT = 0.000455034
Mean velocity  = (6.60001e-05 0 8.16443e-05)

ExecutionTime = 1.87 s  ClockTime = 7 s


Time = 0.00271035

PIMPLE: Iteration 1
DILUPBiCGStab:  Solving for c, Initial residual = 0.0463756, Final residual = 1.25863e-07, No Iterations 1
GAMG:  Solving for p, Initial residual = 1.16477e-06, Final residual = 3.00139e-10, No Iterations 2
PIMPLE: Iteration 2
DILUPBiCGStab:  Solving for c, Initial residual = 0.00051448, Final residual = 1.65696e-09, No Iterations 1
GAMG:  Solving for p, Initial residual = 2.08067e-08, Final residual = 3.49465e-11, No Iterations 2
PIMPLE: Iteration 3
DILUPBiCGStab:  Solving for c, Initial residual = 1.08431e-05, Final residual = 2.85262e-11, No Iterations 1
GAMG:  Solving for p, Initial residual = 4.6818e-10, Final residual = 3.12394e-11, No Iterations 1
PIMPLE: Iteration 4
DILUPBiCGStab:  Solving for c, Initial residual = 2.66261e-07, Final residual = 6.23455e-13, No Iterations 1
GAMG:  Solving for p, Initial residual = 4.10338e-11, Final residual = 4.10338e-11, No Iterations 0
PIMPLE: Converged 
        Doing final iteration
PIMPLE: Iteration 5
DILUPBiCGStab:  Solving for c, Initial residual = 6.41162e-09, Final residual = 1.07546e-14, No Iterations 1
GAMG:  Solving for p, Initial residual = 4.09218e-11, Final residual = 4.09218e-11, No Iterations 0
PIMPLE: Converged in 5 iterations
time step continuity errors : sum local = 2.79531e-12, global = -2.86851e-13, cumulative = 1.24429e-12
Courant Number mean: 1.07948e-05 max: 0.0180658
deltaT = 0.000546039
Mean velocity  = (6.60002e-05 0 8.10972e-05)

ExecutionTime = 1.95 s  ClockTime = 7 s


Time = 0.00325639

PIMPLE: Iteration 1
DILUPBiCGStab:  Solving for c, Initial residual = 0.0459431, Final residual = 2.07591e-07, No Iterations 1
GAMG:  Solving for p, Initial residual = 1.36159e-06, Final residual = 3.49704e-10, No Iterations 2
PIMPLE: Iteration 2
DILUPBiCGStab:  Solving for c, Initial residual = 0.000627392, Final residual = 3.25366e-09, No Iterations 1
GAMG:  Solving for p, Initial residual = 3.00133e-08, Final residual = 4.24623e-11, No Iterations 2
PIMPLE: Iteration 3
DILUPBiCGStab:  Solving for c, Initial residual = 1.64277e-05, Final residual = 6.88967e-11, No Iterations 1
GAMG:  Solving for p, Initial residual = 8.18234e-10, Final residual = 3.7974e-11, No Iterations 1
PIMPLE: Iteration 4
DILUPBiCGStab:  Solving for c, Initial residual = 4.89904e-07, Final residual = 1.84172e-12, No Iterations 1
GAMG:  Solving for p, Initial residual = 5.94261e-11, Final residual = 5.94261e-11, No Iterations 0
PIMPLE: Converged 
        Doing final iteration
PIMPLE: Iteration 5
DILUPBiCGStab:  Solving for c, Initial residual = 1.58774e-08, Final residual = 4.79772e-14, No Iterations 1
GAMG:  Solving for p, Initial residual = 5.91338e-11, Final residual = 5.91338e-11, No Iterations 0
PIMPLE: Converged in 5 iterations
time step continuity errors : sum local = 4.8473e-12, global = -3.38031e-13, cumulative = 9.06263e-13
Courant Number mean: 1.29007e-05 max: 0.0211461
deltaT = 0.000655244
Mean velocity  = (6.60002e-05 0 8.04533e-05)

ExecutionTime = 2.03 s  ClockTime = 7 s


Time = 0.00391163

PIMPLE: Iteration 1
DILUPBiCGStab:  Solving for c, Initial residual = 0.0454533, Final residual = 3.40329e-07, No Iterations 1
GAMG:  Solving for p, Initial residual = 1.5814e-06, Final residual = 4.08885e-10, No Iterations 2
PIMPLE: Iteration 2
DILUPBiCGStab:  Solving for c, Initial residual = 0.000761434, Final residual = 6.33171e-09, No Iterations 1
GAMG:  Solving for p, Initial residual = 4.2975e-08, Final residual = 5.4392e-11, No Iterations 2
PIMPLE: Iteration 3
DILUPBiCGStab:  Solving for c, Initial residual = 2.46615e-05, Final residual = 1.64037e-10, No Iterations 1
GAMG:  Solving for p, Initial residual = 1.42419e-09, Final residual = 5.26841e-11, No Iterations 1
PIMPLE: Iteration 4
DILUPBiCGStab:  Solving for c, Initial residual = 8.95471e-07, Final residual = 5.34902e-12, No Iterations 1
GAMG:  Solving for p, Initial residual = 9.88944e-11, Final residual = 9.88944e-11, No Iterations 0
PIMPLE: Converged 
        Doing final iteration
PIMPLE: Iteration 5
DILUPBiCGStab:  Solving for c, Initial residual = 3.8554e-08, Final residual = 2.10055e-13, No Iterations 1
GAMG:  Solving for p, Initial residual = 9.81087e-11, Final residual = 9.81087e-11, No Iterations 0
PIMPLE: Converged in 5 iterations
time step continuity errors : sum local = 9.65041e-12, global = -3.28057e-13, cumulative = 5.78207e-13
Courant Number mean: 1.54064e-05 max: 0.0246357
deltaT = 0.000786287
Mean velocity  = (6.60003e-05 0 7.97005e-05)

ExecutionTime = 2.11 s  ClockTime = 7 s


Time = 0.00469792

PIMPLE: Iteration 1
DILUPBiCGStab:  Solving for c, Initial residual = 0.0448975, Final residual = 5.53355e-07, No Iterations 1
GAMG:  Solving for p, Initial residual = 1.82196e-06, Final residual = 4.76099e-10, No Iterations 2
PIMPLE: Iteration 2
DILUPBiCGStab:  Solving for c, Initial residual = 0.000916968, Final residual = 1.21774e-08, No Iterations 1
GAMG:  Solving for p, Initial residual = 6.08776e-08, Final residual = 7.056e-11, No Iterations 2
PIMPLE: Iteration 3
DILUPBiCGStab:  Solving for c, Initial residual = 3.65286e-05, Final residual = 3.83148e-10, No Iterations 1
GAMG:  Solving for p, Initial residual = 2.44687e-09, Final residual = 7.67461e-11, No Iterations 1
PIMPLE: Iteration 4
DILUPBiCGStab:  Solving for c, Initial residual = 1.61423e-06, Final residual = 1.51436e-11, No Iterations 1
GAMG:  Solving for p, Initial residual = 1.74252e-10, Final residual = 4.25688e-11, No Iterations 1
PIMPLE: Converged 
        Doing final iteration
PIMPLE: Iteration 5
DILUPBiCGStab:  Solving for c, Initial residual = 7.9497e-08, Final residual = 3.37435e-13, No Iterations 1
GAMG:  Solving for p, Initial residual = 4.5715e-11, Final residual = 4.5715e-11, No Iterations 0
PIMPLE: Converged in 5 iterations
time step continuity errors : sum local = 5.39605e-12, global = 9.15119e-14, cumulative = 6.69719e-13
Courant Number mean: 1.83842e-05 max: 0.0285463
deltaT = 0.000943539
Mean velocity  = (6.60002e-05 0 7.88277e-05)

ExecutionTime = 2.2 s  ClockTime = 7 s


Time = 0.00564146

PIMPLE: Iteration 1
DILUPBiCGStab:  Solving for c, Initial residual = 0.0442691, Final residual = 8.89913e-07, No Iterations 1
GAMG:  Solving for p, Initial residual = 2.07831e-06, Final residual = 5.24719e-10, No Iterations 2
PIMPLE: Iteration 2
DILUPBiCGStab:  Solving for c, Initial residual = 0.00109155, Final residual = 2.30719e-08, No Iterations 1
GAMG:  Solving for p, Initial residual = 8.49581e-08, Final residual = 7.1604e-11, No Iterations 2
PIMPLE: Iteration 3
DILUPBiCGStab:  Solving for c, Initial residual = 5.30993e-05, Final residual = 8.72966e-10, No Iterations 1
GAMG:  Solving for p, Initial residual = 4.10396e-09, Final residual = 9.63175e-11, No Iterations 1
PIMPLE: Iteration 4
DILUPBiCGStab:  Solving for c, Initial residual = 2.83811e-06, Final residual = 4.12171e-11, No Iterations 1
GAMG:  Solving for p, Initial residual = 2.95911e-10, Final residual = 4.85611e-11, No Iterations 1
PIMPLE: Converged 
        Doing final iteration
PIMPLE: Iteration 5
DILUPBiCGStab:  Solving for c, Initial residual = 1.65509e-07, Final residual = 1.27186e-12, No Iterations 1
GAMG:  Solving for p, Initial residual = 5.70378e-11, Final residual = 5.70378e-11, No Iterations 0
PIMPLE: Converged in 5 iterations
time step continuity errors : sum local = 8.07899e-12, global = -2.40817e-13, cumulative = 4.28902e-13
Courant Number mean: 2.19188e-05 max: 0.0328746
deltaT = 0.00113225
Mean velocity  = (6.60003e-05 0 7.78268e-05)

ExecutionTime = 2.28 s  ClockTime = 7 s


Time = 0.0067737

PIMPLE: Iteration 1
DILUPBiCGStab:  Solving for c, Initial residual = 0.0435669, Final residual = 1.41097e-06, No Iterations 1
GAMG:  Solving for p, Initial residual = 2.34182e-06, Final residual = 5.872e-10, No Iterations 2
PIMPLE: Iteration 2
DILUPBiCGStab:  Solving for c, Initial residual = 0.00127801, Final residual = 4.28971e-08, No Iterations 1
GAMG:  Solving for p, Initial residual = 1.16315e-07, Final residual = 8.64036e-11, No Iterations 2
PIMPLE: Iteration 3
DILUPBiCGStab:  Solving for c, Initial residual = 7.5311e-05, Final residual = 1.92931e-09, No Iterations 1
GAMG:  Solving for p, Initial residual = 6.73809e-09, Final residual = 5.65642e-11, No Iterations 2
PIMPLE: Iteration 4
DILUPBiCGStab:  Solving for c, Initial residual = 4.89382e-06, Final residual = 1.10611e-10, No Iterations 1
GAMG:  Solving for p, Initial residual = 4.62017e-10, Final residual = 3.47891e-11, No Iterations 1
PIMPLE: Iteration 5
DILUPBiCGStab:  Solving for c, Initial residual = 3.38651e-07, Final residual = 6.99464e-12, No Iterations 1
GAMG:  Solving for p, Initial residual = 6.04022e-11, Final residual = 6.04022e-11, No Iterations 0
PIMPLE: Converged 
        Doing final iteration
PIMPLE: Iteration 6
DILUPBiCGStab:  Solving for c, Initial residual = 3.01724e-08, Final residual = 9.26791e-13, No Iterations 1
GAMG:  Solving for p, Initial residual = 5.95988e-11, Final residual = 5.95988e-11, No Iterations 0
PIMPLE: Converged in 6 iterations
time step continuity errors : sum local = 1.01301e-11, global = 1.68802e-12, cumulative = 2.11693e-12
Courant Number mean: 2.61095e-05 max: 0.0376005
deltaT = 0.0013587
Mean velocity  = (6.60005e-05 0 7.6694e-05)

ExecutionTime = 2.39 s  ClockTime = 7 s


Time = 0.0081324

PIMPLE: Iteration 1
DILUPBiCGStab:  Solving for c, Initial residual = 0.0427948, Final residual = 2.19727e-06, No Iterations 1
GAMG:  Solving for p, Initial residual = 2.59992e-06, Final residual = 6.55044e-10, No Iterations 2
PIMPLE: Iteration 2
DILUPBiCGStab:  Solving for c, Initial residual = 0.00146262, Final residual = 7.78665e-08, No Iterations 1
GAMG:  Solving for p, Initial residual = 1.5533e-07, Final residual = 1.05891e-10, No Iterations 2
PIMPLE: Iteration 3
DILUPBiCGStab:  Solving for c, Initial residual = 0.000103449, Final residual = 4.10753e-09, No Iterations 1
GAMG:  Solving for p, Initial residual = 1.07134e-08, Final residual = 6.89418e-11, No Iterations 2
PIMPLE: Iteration 4
DILUPBiCGStab:  Solving for c, Initial residual = 8.01091e-06, Final residual = 2.76626e-10, No Iterations 1
GAMG:  Solving for p, Initial residual = 8.37836e-10, Final residual = 4.41974e-11, No Iterations 1
PIMPLE: Iteration 5
DILUPBiCGStab:  Solving for c, Initial residual = 6.48202e-07, Final residual = 2.0556e-11, No Iterations 1
GAMG:  Solving for p, Initial residual = 1.01751e-10, Final residual = 4.92025e-11, No Iterations 1
PIMPLE: Converged 
        Doing final iteration
PIMPLE: Iteration 6
DILUPBiCGStab:  Solving for c, Initial residual = 6.2724e-08, Final residual = 1.09872e-12, No Iterations 1
GAMG:  Solving for p, Initial residual = 5.31952e-11, Final residual = 5.31952e-11, No Iterations 0
PIMPLE: Converged in 6 iterations
time step continuity errors : sum local = 1.08499e-11, global = -4.93826e-13, cumulative = 1.6231e-12
Courant Number mean: 3.10727e-05 max: 0.0426872
deltaT = 0.00163042
Mean velocity  = (6.60001e-05 0 7.54327e-05)

ExecutionTime = 2.49 s  ClockTime = 7 s


Time = 0.00976282

PIMPLE: Iteration 1
DILUPBiCGStab:  Solving for c, Initial residual = 0.0419646, Final residual = 3.34732e-06, No Iterations 1
GAMG:  Solving for p, Initial residual = 2.83617e-06, Final residual = 7.0243e-10, No Iterations 2
PIMPLE: Iteration 2
DILUPBiCGStab:  Solving for c, Initial residual = 0.00162339, Final residual = 1.37065e-07, No Iterations 1
GAMG:  Solving for p, Initial residual = 2.01004e-07, Final residual = 1.1982e-10, No Iterations 2
PIMPLE: Iteration 3
DILUPBiCGStab:  Solving for c, Initial residual = 0.000136464, Final residual = 8.3675e-09, No Iterations 1
GAMG:  Solving for p, Initial residual = 1.63626e-08, Final residual = 7.03399e-11, No Iterations 2
PIMPLE: Iteration 4
DILUPBiCGStab:  Solving for c, Initial residual = 1.24669e-05, Final residual = 6.51331e-10, No Iterations 1
GAMG:  Solving for p, Initial residual = 1.45752e-09, Final residual = 5.13613e-11, No Iterations 1
PIMPLE: Iteration 5
DILUPBiCGStab:  Solving for c, Initial residual = 1.17699e-06, Final residual = 5.61212e-11, No Iterations 1
GAMG:  Solving for p, Initial residual = 1.73194e-10, Final residual = 3.62151e-11, No Iterations 1
PIMPLE: Converged 
        Doing final iteration
PIMPLE: Iteration 6
DILUPBiCGStab:  Solving for c, Initial residual = 1.19948e-07, Final residual = 3.53407e-12, No Iterations 1
GAMG:  Solving for p, Initial residual = 4.63205e-11, Final residual = 4.63205e-11, No Iterations 0
PIMPLE: Converged in 6 iterations
time step continuity errors : sum local = 1.13372e-11, global = 3.66054e-13, cumulative = 1.98915e-12
Courant Number mean: 3.69462e-05 max: 0.0480873
deltaT = 0.00195649
Mean velocity  = (6.60003e-05 0 7.40548e-05)

ExecutionTime = 2.6 s  ClockTime = 7 s


Time = 0.0117193

PIMPLE: Iteration 1
DILUPBiCGStab:  Solving for c, Initial residual = 0.0410978, Final residual = 4.9659e-06, No Iterations 1
GAMG:  Solving for p, Initial residual = 3.03185e-06, Final residual = 7.4463e-10, No Iterations 2
PIMPLE: Iteration 2
DILUPBiCGStab:  Solving for c, Initial residual = 0.00178305, Final residual = 2.32077e-07, No Iterations 1
GAMG:  Solving for p, Initial residual = 2.50143e-07, Final residual = 1.41924e-10, No Iterations 2
PIMPLE: Iteration 3
DILUPBiCGStab:  Solving for c, Initial residual = 0.000171218, Final residual = 1.62245e-08, No Iterations 1
GAMG:  Solving for p, Initial residual = 2.3848e-08, Final residual = 8.12194e-11, No Iterations 2
PIMPLE: Iteration 4
DILUPBiCGStab:  Solving for c, Initial residual = 1.82744e-05, Final residual = 1.43481e-09, No Iterations 1
GAMG:  Solving for p, Initial residual = 2.44344e-09, Final residual = 6.77941e-11, No Iterations 1
PIMPLE: Iteration 5
DILUPBiCGStab:  Solving for c, Initial residual = 2.00992e-06, Final residual = 1.41441e-10, No Iterations 1
GAMG:  Solving for p, Initial residual = 3.09354e-10, Final residual = 4.20559e-11, No Iterations 1
PIMPLE: Converged 
        Doing final iteration
PIMPLE: Iteration 6
DILUPBiCGStab:  Solving for c, Initial residual = 2.32346e-07, Final residual = 1.06541e-11, No Iterations 1
GAMG:  Solving for p, Initial residual = 6.5945e-11, Final residual = 6.5945e-11, No Iterations 0
PIMPLE: Converged in 6 iterations
time step continuity errors : sum local = 1.93685e-11, global = 1.01734e-12, cumulative = 3.0065e-12
Courant Number mean: 4.38947e-05 max: 0.053758
deltaT = 0.00234775
Mean velocity  = (6.60004e-05 0 7.25825e-05)

ExecutionTime = 2.7 s  ClockTime = 7 s


Time = 0.0140671

PIMPLE: Iteration 1
DILUPBiCGStab:  Solving for c, Initial residual = 0.0402211, Final residual = 7.14877e-06, No Iterations 1
GAMG:  Solving for p, Initial residual = 3.16891e-06, Final residual = 7.79059e-10, No Iterations 2
PIMPLE: Iteration 2
DILUPBiCGStab:  Solving for c, Initial residual = 0.00190202, Final residual = 3.72781e-07, No Iterations 1
GAMG:  Solving for p, Initial residual = 2.96492e-07, Final residual = 1.67819e-10, No Iterations 2
PIMPLE: Iteration 3
DILUPBiCGStab:  Solving for c, Initial residual = 0.000201857, Final residual = 2.96976e-08, No Iterations 1
GAMG:  Solving for p, Initial residual = 3.28567e-08, Final residual = 9.51264e-11, No Iterations 2
PIMPLE: Iteration 4
DILUPBiCGStab:  Solving for c, Initial residual = 2.49219e-05, Final residual = 2.93275e-09, No Iterations 1
GAMG:  Solving for p, Initial residual = 3.86024e-09, Final residual = 9.13532e-11, No Iterations 1
PIMPLE: Iteration 5
DILUPBiCGStab:  Solving for c, Initial residual = 3.1699e-06, Final residual = 3.25431e-10, No Iterations 1
GAMG:  Solving for p, Initial residual = 5.35679e-10, Final residual = 5.16859e-11, No Iterations 1
PIMPLE: Converged 
        Doing final iteration
PIMPLE: Iteration 6
DILUPBiCGStab:  Solving for c, Initial residual = 4.20233e-07, Final residual = 2.91626e-11, No Iterations 1
GAMG:  Solving for p, Initial residual = 1.0339e-10, Final residual = 2.90283e-11, No Iterations 1
PIMPLE: Converged in 6 iterations
time step continuity errors : sum local = 1.02309e-11, global = -3.34989e-13, cumulative = 2.67151e-12
Courant Number mean: 5.21141e-05 max: 0.0596774
deltaT = 0.0028173
Mean velocity  = (6.60004e-05 0 7.10471e-05)

ExecutionTime = 2.81 s  ClockTime = 7 s


Time = 0.0168844

PIMPLE: Iteration 1
DILUPBiCGStab:  Solving for c, Initial residual = 0.0393672, Final residual = 9.94592e-06, No Iterations 1
GAMG:  Solving for p, Initial residual = 3.23474e-06, Final residual = 7.99238e-10, No Iterations 2
PIMPLE: Iteration 2
DILUPBiCGStab:  Solving for c, Initial residual = 0.00195583, Final residual = 5.66938e-07, No Iterations 1
GAMG:  Solving for p, Initial residual = 3.30697e-07, Final residual = 1.9136e-10, No Iterations 2
PIMPLE: Iteration 3
DILUPBiCGStab:  Solving for c, Initial residual = 0.000223572, Final residual = 5.07952e-08, No Iterations 1
GAMG:  Solving for p, Initial residual = 4.2326e-08, Final residual = 7.9536e-11, No Iterations 3
PIMPLE: Iteration 4
DILUPBiCGStab:  Solving for c, Initial residual = 3.10867e-05, Final residual = 5.50649e-09, No Iterations 1
GAMG:  Solving for p, Initial residual = 5.65075e-09, Final residual = 5.34498e-11, No Iterations 2
PIMPLE: Iteration 5
DILUPBiCGStab:  Solving for c, Initial residual = 4.54801e-06, Final residual = 6.75347e-10, No Iterations 1
GAMG:  Solving for p, Initial residual = 8.08008e-10, Final residual = 3.42578e-11, No Iterations 1
PIMPLE: Iteration 6
DILUPBiCGStab:  Solving for c, Initial residual = 6.73027e-07, Final residual = 8.84964e-11, No Iterations 1
GAMG:  Solving for p, Initial residual = 1.38174e-10, Final residual = 4.21696e-11, No Iterations 1
PIMPLE: Converged 
        Doing final iteration
PIMPLE: Iteration 7
DILUPBiCGStab:  Solving for c, Initial residual = 1.03252e-07, Final residual = 9.59319e-12, No Iterations 1
GAMG:  Solving for p, Initial residual = 5.64492e-11, Final residual = 5.64492e-11, No Iterations 0
PIMPLE: Converged in 7 iterations
time step continuity errors : sum local = 2.38737e-11, global = 1.93489e-12, cumulative = 4.6064e-12
Courant Number mean: 6.18421e-05 max: 0.0658708
deltaT = 0.00338066
Mean velocity  = (6.60003e-05 0 6.94864e-05)

ExecutionTime = 2.94 s  ClockTime = 8 s


Time = 0.020265

PIMPLE: Iteration 1
DILUPBiCGStab:  Solving for c, Initial residual = 0.0385632, Final residual = 1.32656e-05, No Iterations 1
GAMG:  Solving for p, Initial residual = 3.22675e-06, Final residual = 8.0755e-10, No Iterations 2
PIMPLE: Iteration 2
DILUPBiCGStab:  Solving for c, Initial residual = 0.00192797, Final residual = 8.09939e-07, No Iterations 1
GAMG:  Solving for p, Initial residual = 3.41552e-07, Final residual = 2.12052e-10, No Iterations 2
PIMPLE: Iteration 3
DILUPBiCGStab:  Solving for c, Initial residual = 0.000253408, Final residual = 8.01123e-08, No Iterations 1
GAMG:  Solving for p, Initial residual = 5.01255e-08, Final residual = 9.31438e-11, No Iterations 3
PIMPLE: Iteration 4
DILUPBiCGStab:  Solving for c, Initial residual = 3.45291e-05, Final residual = 9.44587e-09, No Iterations 1
GAMG:  Solving for p, Initial residual = 7.58195e-09, Final residual = 5.51922e-11, No Iterations 2
PIMPLE: Iteration 5
DILUPBiCGStab:  Solving for c, Initial residual = 5.73191e-06, Final residual = 1.25894e-09, No Iterations 1
GAMG:  Solving for p, Initial residual = 1.20437e-09, Final residual = 4.0461e-11, No Iterations 1
PIMPLE: Iteration 6
DILUPBiCGStab:  Solving for c, Initial residual = 9.64787e-07, Final residual = 1.81256e-10, No Iterations 1
GAMG:  Solving for p, Initial residual = 2.19757e-10, Final residual = 4.97392e-11, No Iterations 1
PIMPLE: Converged 
        Doing final iteration
PIMPLE: Iteration 7
DILUPBiCGStab:  Solving for c, Initial residual = 1.68537e-07, Final residual = 2.27733e-11, No Iterations 1
GAMG:  Solving for p, Initial residual = 7.79647e-11, Final residual = 7.79647e-11, No Iterations 0
PIMPLE: Converged in 7 iterations
time step continuity errors : sum local = 3.95672e-11, global = 2.55344e-12, cumulative = 7.15984e-12
Courant Number mean: 7.33593e-05 max: 0.0724192
deltaT = 0.0040568
Mean velocity  = (6.60003e-05 0 6.79382e-05)

ExecutionTime = 3.06 s  ClockTime = 8 s


Time = 0.0243218

PIMPLE: Iteration 1
DILUPBiCGStab:  Solving for c, Initial residual = 0.0378325, Final residual = 1.66299e-05, No Iterations 1
GAMG:  Solving for p, Initial residual = 3.15624e-06, Final residual = 8.10047e-10, No Iterations 2
PIMPLE: Iteration 2
DILUPBiCGStab:  Solving for c, Initial residual = 0.00181595, Final residual = 1.07523e-06, No Iterations 1
GAMG:  Solving for p, Initial residual = 3.19486e-07, Final residual = 2.27428e-10, No Iterations 2
PIMPLE: Iteration 3
DILUPBiCGStab:  Solving for c, Initial residual = 0.000267103, Final residual = 1.12585e-07, No Iterations 1
GAMG:  Solving for p, Initial residual = 5.30331e-08, Final residual = 6.32233e-11, No Iterations 4
PIMPLE: Iteration 4
DILUPBiCGStab:  Solving for c, Initial residual = 4.17694e-05, Final residual = 1.47364e-08, No Iterations 1
GAMG:  Solving for p, Initial residual = 8.97233e-09, Final residual = 6.14375e-11, No Iterations 2
PIMPLE: Iteration 5
DILUPBiCGStab:  Solving for c, Initial residual = 6.53227e-06, Final residual = 2.07638e-09, No Iterations 1
GAMG:  Solving for p, Initial residual = 1.59061e-09, Final residual = 4.70279e-11, No Iterations 1
PIMPLE: Iteration 6
DILUPBiCGStab:  Solving for c, Initial residual = 1.1325e-06, Final residual = 3.18745e-10, No Iterations 1
GAMG:  Solving for p, Initial residual = 3.13478e-10, Final residual = 2.86474e-11, No Iterations 1
PIMPLE: Converged 
        Doing final iteration
PIMPLE: Iteration 7
DILUPBiCGStab:  Solving for c, Initial residual = 2.22091e-07, Final residual = 4.60341e-11, No Iterations 1
GAMG:  Solving for p, Initial residual = 7.62295e-11, Final residual = 7.62295e-11, No Iterations 0
PIMPLE: Converged in 7 iterations
time step continuity errors : sum local = 4.6424e-11, global = 3.35132e-12, cumulative = 1.05112e-11
Courant Number mean: 8.70072e-05 max: 0.0794646
deltaT = 0.00486808
Mean velocity  = (6.60005e-05 0 6.64329e-05)

ExecutionTime = 3.18 s  ClockTime = 8 s


Time = 0.0291899

PIMPLE: Iteration 1
DILUPBiCGStab:  Solving for c, Initial residual = 0.0371812, Final residual = 1.89631e-05, No Iterations 1
GAMG:  Solving for p, Initial residual = 3.04665e-06, Final residual = 8.17875e-10, No Iterations 2
PIMPLE: Iteration 2
DILUPBiCGStab:  Solving for c, Initial residual = 0.00164466, Final residual = 1.29835e-06, No Iterations 1
GAMG:  Solving for p, Initial residual = 2.60693e-07, Final residual = 2.4033e-10, No Iterations 2
PIMPLE: Iteration 3
DILUPBiCGStab:  Solving for c, Initial residual = 0.000257643, Final residual = 1.32736e-07, No Iterations 1
GAMG:  Solving for p, Initial residual = 4.75039e-08, Final residual = 7.57159e-11, No Iterations 4
PIMPLE: Iteration 4
DILUPBiCGStab:  Solving for c, Initial residual = 4.64077e-05, Final residual = 1.9807e-08, No Iterations 1
GAMG:  Solving for p, Initial residual = 8.82789e-09, Final residual = 6.99533e-11, No Iterations 2
PIMPLE: Iteration 5
DILUPBiCGStab:  Solving for c, Initial residual = 8.2871e-06, Final residual = 2.98628e-09, No Iterations 1
GAMG:  Solving for p, Initial residual = 1.71143e-09, Final residual = 5.32041e-11, No Iterations 1
PIMPLE: Iteration 6
DILUPBiCGStab:  Solving for c, Initial residual = 1.48104e-06, Final residual = 4.77945e-10, No Iterations 1
GAMG:  Solving for p, Initial residual = 3.64652e-10, Final residual = 2.94105e-11, No Iterations 1
PIMPLE: Converged 
        Doing final iteration
PIMPLE: Iteration 7
DILUPBiCGStab:  Solving for c, Initial residual = 2.72594e-07, Final residual = 7.5328e-11, No Iterations 1
GAMG:  Solving for p, Initial residual = 9.02602e-11, Final residual = 9.02602e-11, No Iterations 0
PIMPLE: Converged in 7 iterations
time step continuity errors : sum local = 6.5962e-11, global = 5.08355e-12, cumulative = 1.55947e-11
Courant Number mean: 0.000103181 max: 0.0871625
deltaT = 0.00584146
Mean velocity  = (6.60006e-05 0 6.49868e-05)

ExecutionTime = 3.3 s  ClockTime = 8 s


Time = 0.0350314

PIMPLE: Iteration 1
DILUPBiCGStab:  Solving for c, Initial residual = 0.0366041, Final residual = 1.9075e-05, No Iterations 1
GAMG:  Solving for p, Initial residual = 2.92736e-06, Final residual = 8.68837e-10, No Iterations 2
PIMPLE: Iteration 2
DILUPBiCGStab:  Solving for c, Initial residual = 0.00146088, Final residual = 1.30112e-06, No Iterations 1
GAMG:  Solving for p, Initial residual = 2.19224e-07, Final residual = 1.6663e-10, No Iterations 3
PIMPLE: Iteration 3
DILUPBiCGStab:  Solving for c, Initial residual = 0.000238069, Final residual = 1.41225e-07, No Iterations 1
GAMG:  Solving for p, Initial residual = 3.88514e-08, Final residual = 5.27673e-11, No Iterations 4
PIMPLE: Iteration 4
DILUPBiCGStab:  Solving for c, Initial residual = 4.62543e-05, Final residual = 2.0323e-08, No Iterations 1
GAMG:  Solving for p, Initial residual = 8.26442e-09, Final residual = 9.13634e-11, No Iterations 1
PIMPLE: Iteration 5
DILUPBiCGStab:  Solving for c, Initial residual = 9.33474e-06, Final residual = 3.15672e-09, No Iterations 1
GAMG:  Solving for p, Initial residual = 1.7806e-09, Final residual = 4.45343e-11, No Iterations 1
PIMPLE: Iteration 6
DILUPBiCGStab:  Solving for c, Initial residual = 1.89008e-06, Final residual = 4.88326e-10, No Iterations 1
GAMG:  Solving for p, Initial residual = 3.91389e-10, Final residual = 3.36822e-11, No Iterations 1
PIMPLE: Converged 
        Doing final iteration
PIMPLE: Iteration 7
DILUPBiCGStab:  Solving for c, Initial residual = 3.78466e-07, Final residual = 7.93268e-11, No Iterations 1
GAMG:  Solving for p, Initial residual = 1.0333e-10, Final residual = 2.01437e-11, No Iterations 1
PIMPLE: Converged in 7 iterations
time step continuity errors : sum local = 1.7665e-11, global = 2.6146e-12, cumulative = 1.82093e-11
Courant Number mean: 0.000122348 max: 0.0956342
deltaT = 0.00700967
Mean velocity  = (6.60005e-05 0 6.35996e-05)

ExecutionTime = 3.43 s  ClockTime = 8 s


Time = 0.042041

PIMPLE: Iteration 1
DILUPBiCGStab:  Solving for c, Initial residual = 0.0360848, Final residual = 1.66662e-05, No Iterations 1
GAMG:  Solving for p, Initial residual = 2.82265e-06, Final residual = 9.69207e-10, No Iterations 2
PIMPLE: Iteration 2
DILUPBiCGStab:  Solving for c, Initial residual = 0.00150771, Final residual = 1.0073e-06, No Iterations 1
GAMG:  Solving for p, Initial residual = 2.59907e-07, Final residual = 2.00603e-10, No Iterations 3
PIMPLE: Iteration 3
DILUPBiCGStab:  Solving for c, Initial residual = 0.000218658, Final residual = 1.13644e-07, No Iterations 1
GAMG:  Solving for p, Initial residual = 4.13045e-08, Final residual = 9.5196e-11, No Iterations 3
PIMPLE: Iteration 4
DILUPBiCGStab:  Solving for c, Initial residual = 4.70395e-05, Final residual = 1.6564e-08, No Iterations 1
GAMG:  Solving for p, Initial residual = 9.84883e-09, Final residual = 8.08311e-11, No Iterations 1
PIMPLE: Iteration 5
DILUPBiCGStab:  Solving for c, Initial residual = 1.22238e-05, Final residual = 2.54464e-09, No Iterations 1
GAMG:  Solving for p, Initial residual = 2.8007e-09, Final residual = 5.87517e-11, No Iterations 1
PIMPLE: Iteration 6
DILUPBiCGStab:  Solving for c, Initial residual = 3.25158e-06, Final residual = 4.01544e-10, No Iterations 1
GAMG:  Solving for p, Initial residual = 8.16698e-10, Final residual = 5.25307e-11, No Iterations 1
PIMPLE: Converged 
        Doing final iteration
PIMPLE: Iteration 7
DILUPBiCGStab:  Solving for c, Initial residual = 9.15779e-07, Final residual = 6.32261e-11, No Iterations 1
GAMG:  Solving for p, Initial residual = 2.65554e-10, Final residual = 3.79045e-11, No Iterations 1
PIMPLE: Converged in 7 iterations
time step continuity errors : sum local = 3.98867e-11, global = 8.20834e-12, cumulative = 2.64176e-11
Courant Number mean: 0.000145063 max: 0.104915
deltaT = 0.00841114
Mean velocity  = (6.60008e-05 0 6.22581e-05)

ExecutionTime = 3.56 s  ClockTime = 8 s


Time = 0.0504522

PIMPLE: Iteration 1
DILUPBiCGStab:  Solving for c, Initial residual = 0.0355988, Final residual = 1.26354e-05, No Iterations 1
GAMG:  Solving for p, Initial residual = 2.79053e-06, Final residual = 1.08092e-09, No Iterations 2
PIMPLE: Iteration 2
DILUPBiCGStab:  Solving for c, Initial residual = 0.00157134, Final residual = 5.00273e-07, No Iterations 1
GAMG:  Solving for p, Initial residual = 3.07252e-07, Final residual = 2.52208e-10, No Iterations 3
PIMPLE: Iteration 3
DILUPBiCGStab:  Solving for c, Initial residual = 0.000284904, Final residual = 6.77122e-08, No Iterations 1
GAMG:  Solving for p, Initial residual = 6.92457e-08, Final residual = 8.00174e-11, No Iterations 4
PIMPLE: Iteration 4
DILUPBiCGStab:  Solving for c, Initial residual = 8.00861e-05, Final residual = 1.20982e-08, No Iterations 1
GAMG:  Solving for p, Initial residual = 2.07678e-08, Final residual = 6.64738e-11, No Iterations 2
PIMPLE: Iteration 5
DILUPBiCGStab:  Solving for c, Initial residual = 2.44792e-05, Final residual = 2.29993e-09, No Iterations 1
GAMG:  Solving for p, Initial residual = 6.46757e-09, Final residual = 8.12681e-11, No Iterations 1
PIMPLE: Iteration 6
DILUPBiCGStab:  Solving for c, Initial residual = 7.64766e-06, Final residual = 6.21767e-10, No Iterations 1
GAMG:  Solving for p, Initial residual = 2.07932e-09, Final residual = 5.12685e-11, No Iterations 1
PIMPLE: Iteration 7
DILUPBiCGStab:  Solving for c, Initial residual = 2.43474e-06, Final residual = 2.60265e-10, No Iterations 1
GAMG:  Solving for p, Initial residual = 6.79073e-10, Final residual = 4.64619e-11, No Iterations 1
PIMPLE: Converged 
        Doing final iteration
PIMPLE: Iteration 8
DILUPBiCGStab:  Solving for c, Initial residual = 7.68825e-07, Final residual = 9.7237e-11, No Iterations 1
GAMG:  Solving for p, Initial residual = 2.42204e-10, Final residual = 2.64519e-11, No Iterations 1
PIMPLE: Converged in 8 iterations
time step continuity errors : sum local = 3.34009e-11, global = 6.53556e-12, cumulative = 3.29532e-11
Courant Number mean: 0.000171966 max: 0.114923
deltaT = 0.0100929
Mean velocity  = (6.60008e-05 0 6.09455e-05)

ExecutionTime = 3.7 s  ClockTime = 8 s


Time = 0.060545

PIMPLE: Iteration 1
DILUPBiCGStab:  Solving for c, Initial residual = 0.0351288, Final residual = 8.44974e-06, No Iterations 1
GAMG:  Solving for p, Initial residual = 2.91559e-06, Final residual = 1.17496e-09, No Iterations 2
PIMPLE: Iteration 2
DILUPBiCGStab:  Solving for c, Initial residual = 0.00164087, Final residual = 1.42991e-07, No Iterations 1
GAMG:  Solving for p, Initial residual = 3.67373e-07, Final residual = 2.83257e-10, No Iterations 3
PIMPLE: Iteration 3
DILUPBiCGStab:  Solving for c, Initial residual = 0.000373307, Final residual = 5.2268e-08, No Iterations 1
GAMG:  Solving for p, Initial residual = 1.05925e-07, Final residual = 6.68481e-11, No Iterations 4
PIMPLE: Iteration 4
DILUPBiCGStab:  Solving for c, Initial residual = 0.000117324, Final residual = 1.7907e-08, No Iterations 1
GAMG:  Solving for p, Initial residual = 3.46879e-08, Final residual = 3.53705e-11, No Iterations 2
PIMPLE: Iteration 5
DILUPBiCGStab:  Solving for c, Initial residual = 3.9945e-05, Final residual = 6.65677e-09, No Iterations 1
GAMG:  Solving for p, Initial residual = 1.17926e-08, Final residual = 3.83793e-11, No Iterations 2
PIMPLE: Iteration 6
DILUPBiCGStab:  Solving for c, Initial residual = 1.3761e-05, Final residual = 2.52627e-09, No Iterations 1
GAMG:  Solving for p, Initial residual = 4.05977e-09, Final residual = 5.23547e-11, No Iterations 1
PIMPLE: Iteration 7
DILUPBiCGStab:  Solving for c, Initial residual = 4.77382e-06, Final residual = 9.57889e-10, No Iterations 1
GAMG:  Solving for p, Initial residual = 1.43497e-09, Final residual = 3.75316e-11, No Iterations 1
PIMPLE: Iteration 8
DILUPBiCGStab:  Solving for c, Initial residual = 1.6737e-06, Final residual = 3.5201e-10, No Iterations 1
GAMG:  Solving for p, Initial residual = 5.1752e-10, Final residual = 2.35668e-11, No Iterations 1
PIMPLE: Converged 
        Doing final iteration
PIMPLE: Iteration 9
DILUPBiCGStab:  Solving for c, Initial residual = 5.80952e-07, Final residual = 1.29342e-10, No Iterations 1
GAMG:  Solving for p, Initial residual = 1.88792e-10, Final residual = 1.86417e-11, No Iterations 1
PIMPLE: Converged in 9 iterations
time step continuity errors : sum local = 2.82456e-11, global = 4.26451e-12, cumulative = 3.72177e-11
Courant Number mean: 0.000203844 max: 0.125529
deltaT = 0.0121109
Mean velocity  = (6.60004e-05 0 5.96508e-05)

ExecutionTime = 3.87 s  ClockTime = 9 s


Time = 0.072656

PIMPLE: Iteration 1
DILUPBiCGStab:  Solving for c, Initial residual = 0.0346683, Final residual = 5.34858e-06, No Iterations 1
GAMG:  Solving for p, Initial residual = 2.97244e-06, Final residual = 1.26906e-09, No Iterations 2
PIMPLE: Iteration 2
DILUPBiCGStab:  Solving for c, Initial residual = 0.0017401, Final residual = 6.04263e-07, No Iterations 1
GAMG:  Solving for p, Initial residual = 4.47145e-07, Final residual = 3.13064e-10, No Iterations 3
PIMPLE: Iteration 3
DILUPBiCGStab:  Solving for c, Initial residual = 0.000443095, Final residual = 1.46714e-07, No Iterations 1
GAMG:  Solving for p, Initial residual = 1.41198e-07, Final residual = 1.25972e-10, No Iterations 3
PIMPLE: Iteration 4
DILUPBiCGStab:  Solving for c, Initial residual = 0.000151422, Final residual = 4.4685e-08, No Iterations 1
GAMG:  Solving for p, Initial residual = 5.04661e-08, Final residual = 5.24305e-11, No Iterations 2
PIMPLE: Iteration 5
DILUPBiCGStab:  Solving for c, Initial residual = 5.626e-05, Final residual = 1.5916e-08, No Iterations 1
GAMG:  Solving for p, Initial residual = 1.87305e-08, Final residual = 4.61499e-11, No Iterations 2
PIMPLE: Iteration 6
DILUPBiCGStab:  Solving for c, Initial residual = 2.11754e-05, Final residual = 6.0957e-09, No Iterations 1
GAMG:  Solving for p, Initial residual = 7.03572e-09, Final residual = 8.77909e-11, No Iterations 1
PIMPLE: Iteration 7
DILUPBiCGStab:  Solving for c, Initial residual = 8.04407e-06, Final residual = 2.42126e-09, No Iterations 1
GAMG:  Solving for p, Initial residual = 2.7215e-09, Final residual = 4.66744e-11, No Iterations 1
PIMPLE: Iteration 8
DILUPBiCGStab:  Solving for c, Initial residual = 3.09057e-06, Final residual = 9.70189e-10, No Iterations 1
GAMG:  Solving for p, Initial residual = 1.04995e-09, Final residual = 4.05272e-11, No Iterations 1
PIMPLE: Converged 
        Doing final iteration
PIMPLE: Iteration 9
DILUPBiCGStab:  Solving for c, Initial residual = 1.17513e-06, Final residual = 3.87765e-10, No Iterations 1
GAMG:  Solving for p, Initial residual = 4.19245e-10, Final residual = 2.34586e-11, No Iterations 1
PIMPLE: Converged in 9 iterations
time step continuity errors : sum local = 4.2651e-11, global = 8.44178e-12, cumulative = 4.56595e-11
Courant Number mean: 0.000241649 max: 0.136642
deltaT = 0.0145328
Mean velocity  = (6.60005e-05 0 5.83749e-05)

ExecutionTime = 4.04 s  ClockTime = 9 s


Time = 0.0871887

PIMPLE: Iteration 1
DILUPBiCGStab:  Solving for c, Initial residual = 0.0342216, Final residual = 5.66786e-06, No Iterations 1
GAMG:  Solving for p, Initial residual = 2.95629e-06, Final residual = 1.36702e-09, No Iterations 2
PIMPLE: Iteration 2
DILUPBiCGStab:  Solving for c, Initial residual = 0.00178237, Final residual = 9.28273e-07, No Iterations 1
GAMG:  Solving for p, Initial residual = 5.0293e-07, Final residual = 3.54139e-10, No Iterations 3
PIMPLE: Iteration 3
DILUPBiCGStab:  Solving for c, Initial residual = 0.00048425, Final residual = 2.31608e-07, No Iterations 1
GAMG:  Solving for p, Initial residual = 1.72925e-07, Final residual = 1.49722e-10, No Iterations 3
PIMPLE: Iteration 4
DILUPBiCGStab:  Solving for c, Initial residual = 0.000178659, Final residual = 7.54113e-08, No Iterations 1
GAMG:  Solving for p, Initial residual = 6.72807e-08, Final residual = 6.61703e-11, No Iterations 2
PIMPLE: Iteration 5
DILUPBiCGStab:  Solving for c, Initial residual = 7.22083e-05, Final residual = 2.89176e-08, No Iterations 1
GAMG:  Solving for p, Initial residual = 2.72249e-08, Final residual = 4.78179e-11, No Iterations 2
PIMPLE: Iteration 6
DILUPBiCGStab:  Solving for c, Initial residual = 2.95915e-05, Final residual = 1.19135e-08, No Iterations 1
GAMG:  Solving for p, Initial residual = 1.11348e-08, Final residual = 4.46445e-11, No Iterations 2
PIMPLE: Iteration 7
DILUPBiCGStab:  Solving for c, Initial residual = 1.2186e-05, Final residual = 5.04821e-09, No Iterations 1
GAMG:  Solving for p, Initial residual = 4.58633e-09, Final residual = 5.90419e-11, No Iterations 1
PIMPLE: Iteration 8
DILUPBiCGStab:  Solving for c, Initial residual = 5.04261e-06, Final residual = 2.16262e-09, No Iterations 1
GAMG:  Solving for p, Initial residual = 1.92538e-09, Final residual = 4.81747e-11, No Iterations 1
PIMPLE: Iteration 9
DILUPBiCGStab:  Solving for c, Initial residual = 2.11345e-06, Final residual = 9.50506e-10, No Iterations 1
GAMG:  Solving for p, Initial residual = 8.23668e-10, Final residual = 2.69759e-11, No Iterations 1
PIMPLE: Converged 
        Doing final iteration
PIMPLE: Iteration 10
DILUPBiCGStab:  Solving for c, Initial residual = 8.73984e-07, Final residual = 4.10081e-10, No Iterations 1
GAMG:  Solving for p, Initial residual = 3.46042e-10, Final residual = 3.84143e-11, No Iterations 1
PIMPLE: Converged in 10 iterations
time step continuity errors : sum local = 8.38093e-11, global = 1.5174e-12, cumulative = 4.71769e-11
Courant Number mean: 0.000286542 max: 0.148314
deltaT = 0.0174368
Mean velocity  = (6.60002e-05 0 5.71308e-05)

ExecutionTime = 4.22 s  ClockTime = 9 s


Time = 0.104626

PIMPLE: Iteration 1
DILUPBiCGStab:  Solving for c, Initial residual = 0.0337977, Final residual = 8.50861e-06, No Iterations 1
GAMG:  Solving for p, Initial residual = 2.87227e-06, Final residual = 1.45835e-09, No Iterations 2
PIMPLE: Iteration 2
DILUPBiCGStab:  Solving for c, Initial residual = 0.00177124, Final residual = 1.1272e-06, No Iterations 1
GAMG:  Solving for p, Initial residual = 5.3521e-07, Final residual = 3.80019e-10, No Iterations 3
PIMPLE: Iteration 3
DILUPBiCGStab:  Solving for c, Initial residual = 0.000502509, Final residual = 3.01722e-07, No Iterations 1
GAMG:  Solving for p, Initial residual = 2.00035e-07, Final residual = 1.62694e-10, No Iterations 3
PIMPLE: Iteration 4
DILUPBiCGStab:  Solving for c, Initial residual = 0.00019939, Final residual = 1.08604e-07, No Iterations 1
GAMG:  Solving for p, Initial residual = 8.48027e-08, Final residual = 7.58436e-11, No Iterations 2
PIMPLE: Iteration 5
DILUPBiCGStab:  Solving for c, Initial residual = 8.75598e-05, Final residual = 4.59668e-08, No Iterations 1
GAMG:  Solving for p, Initial residual = 3.74068e-08, Final residual = 5.05502e-11, No Iterations 2
PIMPLE: Iteration 6
DILUPBiCGStab:  Solving for c, Initial residual = 3.90236e-05, Final residual = 2.06932e-08, No Iterations 1
GAMG:  Solving for p, Initial residual = 1.6663e-08, Final residual = 4.51683e-11, No Iterations 2
PIMPLE: Iteration 7
DILUPBiCGStab:  Solving for c, Initial residual = 1.75014e-05, Final residual = 9.51978e-09, No Iterations 1
GAMG:  Solving for p, Initial residual = 7.45688e-09, Final residual = 8.71566e-11, No Iterations 1
PIMPLE: Iteration 8
DILUPBiCGStab:  Solving for c, Initial residual = 7.88739e-06, Final residual = 4.4727e-09, No Iterations 1
GAMG:  Solving for p, Initial residual = 3.4067e-09, Final residual = 5.48133e-11, No Iterations 1
PIMPLE: Iteration 9
DILUPBiCGStab:  Solving for c, Initial residual = 3.5997e-06, Final residual = 2.16926e-09, No Iterations 1
GAMG:  Solving for p, Initial residual = 1.5579e-09, Final residual = 3.73334e-11, No Iterations 1
PIMPLE: Iteration 10
DILUPBiCGStab:  Solving for c, Initial residual = 1.6219e-06, Final residual = 1.02236e-09, No Iterations 1
GAMG:  Solving for p, Initial residual = 7.1098e-10, Final residual = 3.26377e-11, No Iterations 1
PIMPLE: Converged 
        Doing final iteration
PIMPLE: Iteration 11
DILUPBiCGStab:  Solving for c, Initial residual = 7.27703e-07, Final residual = 4.70499e-10, No Iterations 1
GAMG:  Solving for p, Initial residual = 3.32979e-10, Final residual = 2.05313e-11, No Iterations 1
PIMPLE: Converged in 11 iterations
time step continuity errors : sum local = 5.37467e-11, global = 9.57222e-12, cumulative = 5.67491e-11
Courant Number mean: 0.000339895 max: 0.160798
deltaT = 0.0209205
Mean velocity  = (6.60004e-05 0 5.59372e-05)

ExecutionTime = 4.42 s  ClockTime = 9 s


Time = 0.125546

PIMPLE: Iteration 1
DILUPBiCGStab:  Solving for c, Initial residual = 0.0334239, Final residual = 1.02586e-05, No Iterations 1
GAMG:  Solving for p, Initial residual = 2.73719e-06, Final residual = 1.57604e-09, No Iterations 2
PIMPLE: Iteration 2
DILUPBiCGStab:  Solving for c, Initial residual = 0.00173492, Final residual = 1.23354e-06, No Iterations 1
GAMG:  Solving for p, Initial residual = 5.45678e-07, Final residual = 4.01719e-10, No Iterations 3
PIMPLE: Iteration 3
DILUPBiCGStab:  Solving for c, Initial residual = 0.000504132, Final residual = 3.58243e-07, No Iterations 1
GAMG:  Solving for p, Initial residual = 2.22187e-07, Final residual = 2.20898e-10, No Iterations 2
PIMPLE: Iteration 4
DILUPBiCGStab:  Solving for c, Initial residual = 0.000215003, Final residual = 1.44621e-07, No Iterations 1
GAMG:  Solving for p, Initial residual = 1.03042e-07, Final residual = 8.91766e-11, No Iterations 4
PIMPLE: Iteration 5
DILUPBiCGStab:  Solving for c, Initial residual = 0.000102813, Final residual = 6.82532e-08, No Iterations 1
GAMG:  Solving for p, Initial residual = 4.96815e-08, Final residual = 4.54512e-11, No Iterations 2
PIMPLE: Iteration 6
DILUPBiCGStab:  Solving for c, Initial residual = 4.98795e-05, Final residual = 3.36858e-08, No Iterations 1
GAMG:  Solving for p, Initial residual = 2.41466e-08, Final residual = 3.24288e-11, No Iterations 2
PIMPLE: Iteration 7
DILUPBiCGStab:  Solving for c, Initial residual = 2.44088e-05, Final residual = 1.68655e-08, No Iterations 1
GAMG:  Solving for p, Initial residual = 1.17718e-08, Final residual = 3.24127e-11, No Iterations 2
PIMPLE: Iteration 8
DILUPBiCGStab:  Solving for c, Initial residual = 1.19059e-05, Final residual = 8.44278e-09, No Iterations 1
GAMG:  Solving for p, Initial residual = 5.73574e-09, Final residual = 6.30775e-11, No Iterations 1
PIMPLE: Iteration 9
DILUPBiCGStab:  Solving for c, Initial residual = 5.84408e-06, Final residual = 4.33556e-09, No Iterations 1
GAMG:  Solving for p, Initial residual = 2.84731e-09, Final residual = 3.90583e-11, No Iterations 1
PIMPLE: Iteration 10
DILUPBiCGStab:  Solving for c, Initial residual = 2.90157e-06, Final residual = 2.30511e-09, No Iterations 1
GAMG:  Solving for p, Initial residual = 1.41245e-09, Final residual = 3.05158e-11, No Iterations 1
PIMPLE: Converged 
        Doing final iteration
PIMPLE: Iteration 11
DILUPBiCGStab:  Solving for c, Initial residual = 1.42443e-06, Final residual = 1.18001e-09, No Iterations 1
GAMG:  Solving for p, Initial residual = 7.0099e-10, Final residual = 2.12566e-11, No Iterations 1
PIMPLE: Converged in 11 iterations
time step continuity errors : sum local = 6.67619e-11, global = 1.29148e-11, cumulative = 6.96639e-11
Courant Number mean: 0.000403428 max: 0.174586
deltaT = 0.0251004
Mean velocity  = (6.60004e-05 0 5.48121e-05)

ExecutionTime = 4.63 s  ClockTime = 9 s


Time = 0.150646

PIMPLE: Iteration 1
DILUPBiCGStab:  Solving for c, Initial residual = 0.0330795, Final residual = 1.11306e-05, No Iterations 1
GAMG:  Solving for p, Initial residual = 2.5765e-06, Final residual = 1.69794e-09, No Iterations 2
PIMPLE: Iteration 2
DILUPBiCGStab:  Solving for c, Initial residual = 0.00180785, Final residual = 1.28511e-06, No Iterations 1
GAMG:  Solving for p, Initial residual = 5.39141e-07, Final residual = 4.02843e-10, No Iterations 3
PIMPLE: Iteration 3
DILUPBiCGStab:  Solving for c, Initial residual = 0.000498504, Final residual = 4.05432e-07, No Iterations 1
[...]
GAMG:  Solving for p, Initial residual = 1.77696e-05, Final residual = 1.24342e-09, No Iterations 2
PIMPLE: Iteration 257
DILUPBiCGStab:  Solving for c, Initial residual = 0.0199251, Final residual = 3.62963e-08, No Iterations 1
GAMG:  Solving for p, Initial residual = 1.77696e-05, Final residual = 1.24458e-09, No Iterations 2
PIMPLE: Iteration 258
DILUPBiCGStab:  Solving for c, Initial residual = 0.00758206, Final residual = 4.73622e-08, No Iterations 1
GAMG:  Solving for p, Initial residual = 1.77696e-05, Final residual = 1.24334e-09, No Iterations 2
PIMPLE: Iteration 259
DILUPBiCGStab:  Solving for c, Initial residual = 0.0199251, Final residual = 3.62963e-08, No Iterations 1
GAMG:  Solving for p, Initial residual = 1.77696e-05, Final residual = 1.24451e-09, No Iterations 2
PIMPLE: Iteration 260
DILUPBiCGStab:  Solving for c, Initial residual = 0.00758206, Final residual = 4.73622e-08, No Iterations 1
GAMG:  Solving for p, Initial residual = 1.77696e-05, Final residual = 1.24325e-09, No Iterations 2
PIMPLE: Iteration 261
DILUPBiCGStab:  Solving for c, Initial residual = 0.0199251, Final residual = 3.62963e-08, No Iterations 1
GAMG:  Solving for p, Initial residual = 1.77696e-05, Final residual = 1.24444e-09, No Iterations 2
PIMPLE: Iteration 262
DILUPBiCGStab:  Solving for c, Initial residual = 0.00758206, Final residual = 4.73622e-08, No Iterations 1
GAMG:  Solving for p, Initial residual = 1.77696e-05, Final residual = 1.24316e-09, No Iterations 2
PIMPLE: Iteration 263
DILUPBiCGStab:  Solving for c, Initial residual = 0.0199251, Final residual = 3.62963e-08, No Iterations 1
GAMG:  Solving for p, Initial residual = 1.77696e-05, Final residual = 1.24437e-09, No Iterations 2
PIMPLE: Iteration 264
DILUPBiCGStab:  Solving for c, Initial residual = 0.00758206, Final residual = 4.73622e-08, No Iterations 1
GAMG:  Solving for p, Initial residual = 1.77696e-05, Final residual = 1.24308e-09, No Iterations 2
PIMPLE: Iteration 265
DILUPBiCGStab:  Solving for c, Initial residual = 0.0199251, Final residual = 3.62963e-08, No Iterations 1
GAMG:  Solving for p, Initial residual = 1.77696e-05, Final residual = 1.2443e-09, No Iterations 2
PIMPLE: Iteration 266
DILUPBiCGStab:  Solving for c, Initial residual = 0.00758206, Final residual = 4.73622e-08, No Iterations 1
GAMG:  Solving for p, Initial residual = 1.77696e-05, Final residual = 1.243e-09, No Iterations 2
PIMPLE: Iteration 267
DILUPBiCGStab:  Solving for c, Initial residual = 0.0199251, Final residual = 3.62963e-08, No Iterations 1
GAMG:  Solving for p, Initial residual = 1.77696e-05, Final residual = 1.24424e-09, No Iterations 2
PIMPLE: Iteration 268
DILUPBiCGStab:  Solving for c, Initial residual = 0.00758206, Final residual = 4.73622e-08, No Iterations 1
GAMG:  Solving for p, Initial residual = 1.77696e-05, Final residual = 1.24292e-09, No Iterations 2
PIMPLE: Iteration 269
DILUPBiCGStab:  Solving for c, Initial residual = 0.0199251, Final residual = 3.62963e-08, No Iterations 1
GAMG:  Solving for p, Initial residual = 1.77696e-05, Final residual = 1.24417e-09, No Iterations 2
PIMPLE: Iteration 270
DILUPBiCGStab:  Solving for c, Initial residual = 0.00758206, Final residual = 4.73622e-08, No Iterations 1
GAMG:  Solving for p, Initial residual = 1.77696e-05, Final residual = 1.24284e-09, No Iterations 2
PIMPLE: Iteration 271
DILUPBiCGStab:  Solving for c, Initial residual = 0.0199251, Final residual = 3.62963e-08, No Iterations 1
GAMG:  Solving for p, Initial residual = 1.77696e-05, Final residual = 1.24411e-09, No Iterations 2
PIMPLE: Iteration 272
DILUPBiCGStab:  Solving for c, Initial residual = 0.00758206, Final residual = 4.73622e-08, No Iterations 1
GAMG:  Solving for p, Initial residual = 1.77696e-05, Final residual = 1.24276e-09, No Iterations 2
PIMPLE: Iteration 273
DILUPBiCGStab:  Solving for c, Initial residual = 0.0199251, Final residual = 3.62963e-08, No Iterations 1
GAMG:  Solving for p, Initial residual = 1.77696e-05, Final residual = 1.24404e-09, No Iterations 2
PIMPLE: Iteration 274
DILUPBiCGStab:  Solving for c, Initial residual = 0.00758206, Final residual = 4.73622e-08, No Iterations 1
GAMG:  Solving for p, Initial residual = 1.77696e-05, Final residual = 1.24269e-09, No Iterations 2
PIMPLE: Iteration 275
DILUPBiCGStab:  Solving for c, Initial residual = 0.0199251, Final residual = 3.62963e-08, No Iterations 1
GAMG:  Solving for p, Initial residual = 1.77696e-05, Final residual = 1.24398e-09, No Iterations 2
PIMPLE: Iteration 276
DILUPBiCGStab:  Solving for c, Initial residual = 0.00758206, Final residual = 4.73622e-08, No Iterations 1
GAMG:  Solving for p, Initial residual = 1.77696e-05, Final residual = 1.24262e-09, No Iterations 2
PIMPLE: Iteration 277
DILUPBiCGStab:  Solving for c, Initial residual = 0.0199251, Final residual = 3.62963e-08, No Iterations 1
GAMG:  Solving for p, Initial residual = 1.77696e-05, Final residual = 1.24392e-09, No Iterations 2
PIMPLE: Iteration 278
DILUPBiCGStab:  Solving for c, Initial residual = 0.00758206, Final residual = 4.73622e-08, No Iterations 1
GAMG:  Solving for p, Initial residual = 1.77696e-05, Final residual = 1.24254e-09, No Iterations 2
PIMPLE: Iteration 279
DILUPBiCGStab:  Solving for c, Initial residual = 0.0199251, Final residual = 3.62963e-08, No Iterations 1
GAMG:  Solving for p, Initial residual = 1.77696e-05, Final residual = 1.24386e-09, No Iterations 2
PIMPLE: Iteration 280
DILUPBiCGStab:  Solving for c, Initial residual = 0.00758206, Final residual = 4.73622e-08, No Iterations 1
GAMG:  Solving for p, Initial residual = 1.77696e-05, Final residual = 1.24247e-09, No Iterations 2
PIMPLE: Iteration 281
DILUPBiCGStab:  Solving for c, Initial residual = 0.0199251, Final residual = 3.62963e-08, No Iterations 1
GAMG:  Solving for p, Initial residual = 1.77696e-05, Final residual = 1.2438e-09, No Iterations 2
PIMPLE: Iteration 282
DILUPBiCGStab:  Solving for c, Initial residual = 0.00758206, Final residual = 4.73622e-08, No Iterations 1
GAMG:  Solving for p, Initial residual = 1.77696e-05, Final residual = 1.2424e-09, No Iterations 2
PIMPLE: Iteration 283
DILUPBiCGStab:  Solving for c, Initial residual = 0.0199251, Final residual = 3.62963e-08, No Iterations 1
GAMG:  Solving for p, Initial residual = 1.77696e-05, Final residual = 1.24374e-09, No Iterations 2
PIMPLE: Iteration 284
DILUPBiCGStab:  Solving for c, Initial residual = 0.00758206, Final residual = 4.73622e-08, No Iterations 1
GAMG:  Solving for p, Initial residual = 1.77696e-05, Final residual = 1.24233e-09, No Iterations 2
PIMPLE: Iteration 285
DILUPBiCGStab:  Solving for c, Initial residual = 0.0199251, Final residual = 3.62963e-08, No Iterations 1
GAMG:  Solving for p, Initial residual = 1.77696e-05, Final residual = 1.24368e-09, No Iterations 2
PIMPLE: Iteration 286
DILUPBiCGStab:  Solving for c, Initial residual = 0.00758206, Final residual = 4.73622e-08, No Iterations 1
GAMG:  Solving for p, Initial residual = 1.77696e-05, Final residual = 1.24227e-09, No Iterations 2
PIMPLE: Iteration 287
DILUPBiCGStab:  Solving for c, Initial residual = 0.0199251, Final residual = 3.62963e-08, No Iterations 1
GAMG:  Solving for p, Initial residual = 1.77696e-05, Final residual = 1.24362e-09, No Iterations 2
PIMPLE: Iteration 288
DILUPBiCGStab:  Solving for c, Initial residual = 0.00758206, Final residual = 4.73622e-08, No Iterations 1
GAMG:  Solving for p, Initial residual = 1.77696e-05, Final residual = 1.2422e-09, No Iterations 2
PIMPLE: Iteration 289
DILUPBiCGStab:  Solving for c, Initial residual = 0.0199251, Final residual = 3.62963e-08, No Iterations 1
GAMG:  Solving for p, Initial residual = 1.77696e-05, Final residual = 1.24357e-09, No Iterations 2
PIMPLE: Iteration 290
DILUPBiCGStab:  Solving for c, Initial residual = 0.00758206, Final residual = 4.73622e-08, No Iterations 1
GAMG:  Solving for p, Initial residual = 1.77696e-05, Final residual = 1.24214e-09, No Iterations 2
PIMPLE: Iteration 291
DILUPBiCGStab:  Solving for c, Initial residual = 0.0199251, Final residual = 3.62963e-08, No Iterations 1
GAMG:  Solving for p, Initial residual = 1.77696e-05, Final residual = 1.24351e-09, No Iterations 2
PIMPLE: Iteration 292
DILUPBiCGStab:  Solving for c, Initial residual = 0.00758206, Final residual = 4.73622e-08, No Iterations 1
GAMG:  Solving for p, Initial residual = 1.77696e-05, Final residual = 1.24207e-09, No Iterations 2
PIMPLE: Iteration 293
DILUPBiCGStab:  Solving for c, Initial residual = 0.0199251, Final residual = 3.62963e-08, No Iterations 1
GAMG:  Solving for p, Initial residual = 1.77696e-05, Final residual = 1.24346e-09, No Iterations 2
PIMPLE: Iteration 294
DILUPBiCGStab:  Solving for c, Initial residual = 0.00758206, Final residual = 4.73622e-08, No Iterations 1
GAMG:  Solving for p, Initial residual = 1.77696e-05, Final residual = 1.24201e-09, No Iterations 2
PIMPLE: Iteration 295
DILUPBiCGStab:  Solving for c, Initial residual = 0.0199251, Final residual = 3.62963e-08, No Iterations 1
GAMG:  Solving for p, Initial residual = 1.77696e-05, Final residual = 1.2434e-09, No Iterations 2
PIMPLE: Iteration 296
DILUPBiCGStab:  Solving for c, Initial residual = 0.00758206, Final residual = 4.73622e-08, No Iterations 1
GAMG:  Solving for p, Initial residual = 1.77696e-05, Final residual = 1.24195e-09, No Iterations 2
PIMPLE: Iteration 297
DILUPBiCGStab:  Solving for c, Initial residual = 0.0199251, Final residual = 3.62963e-08, No Iterations 1
GAMG:  Solving for p, Initial residual = 1.77696e-05, Final residual = 1.24335e-09, No Iterations 2
PIMPLE: Iteration 298
DILUPBiCGStab:  Solving for c, Initial residual = 0.00758206, Final residual = 4.73622e-08, No Iterations 1
GAMG:  Solving for p, Initial residual = 1.77696e-05, Final residual = 1.24189e-09, No Iterations 2
PIMPLE: Iteration 299
DILUPBiCGStab:  Solving for c, Initial residual = 0.0199251, Final residual = 3.62963e-08, No Iterations 1
GAMG:  Solving for p, Initial residual = 1.77696e-05, Final residual = 1.2433e-09, No Iterations 2
PIMPLE: Iteration 300
DILUPBiCGStab:  Solving for c, Initial residual = 0.00758206, Final residual = 4.73622e-08, No Iterations 1
GAMG:  Solving for p, Initial residual = 1.77696e-05, Final residual = 1.24183e-09, No Iterations 2
PIMPLE: Iteration 301
DILUPBiCGStab:  Solving for c, Initial residual = 0.0199251, Final residual = 3.62963e-08, No Iterations 1
GAMG:  Solving for p, Initial residual = 1.77696e-05, Final residual = 1.24325e-09, No Iterations 2
PIMPLE: Iteration 302
DILUPBiCGStab:  Solving for c, Initial residual = 0.00758206, Final residual = 4.73622e-08, No Iterations 1
GAMG:  Solving for p, Initial residual = 1.77696e-05, Final residual = 1.24177e-09, No Iterations 2
PIMPLE: Iteration 303
DILUPBiCGStab:  Solving for c, Initial residual = 0.0199251, Final residual = 3.62963e-08, No Iterations 1
GAMG:  Solving for p, Initial residual = 1.77696e-05, Final residual = 1.24319e-09, No Iterations 2
PIMPLE: Iteration 304
DILUPBiCGStab:  Solving for c, Initial residual = 0.00758206, Final residual = 4.73622e-08, No Iterations 1
GAMG:  Solving for p, Initial residual = 1.77696e-05, Final residual = 1.24172e-09, No Iterations 2
PIMPLE: Iteration 305
DILUPBiCGStab:  Solving for c, Initial residual = 0.0199251, Final residual = 3.62963e-08, No Iterations 1
GAMG:  Solving for p, Initial residual = 1.77696e-05, Final residual = 1.24314e-09, No Iterations 2
PIMPLE: Iteration 306
DILUPBiCGStab:  Solving for c, Initial residual = 0.00758206, Final residual = 4.73622e-08, No Iterations 1
GAMG:  Solving for p, Initial residual = 1.77696e-05, Final residual = 1.24166e-09, No Iterations 2
PIMPLE: Iteration 307
DILUPBiCGStab:  Solving for c, Initial residual = 0.0199251, Final residual = 3.62963e-08, No Iterations 1
GAMG:  Solving for p, Initial residual = 1.77696e-05, Final residual = 1.24309e-09, No Iterations 2
PIMPLE: Iteration 308
DILUPBiCGStab:  Solving for c, Initial residual = 0.00758206, Final residual = 4.73622e-08, No Iterations 1
GAMG:  Solving for p, Initial residual = 1.77696e-05, Final residual = 1.24161e-09, No Iterations 2
PIMPLE: Iteration 309
DILUPBiCGStab:  Solving for c, Initial residual = 0.0199251, Final residual = 3.62963e-08, No Iterations 1
GAMG:  Solving for p, Initial residual = 1.77696e-05, Final residual = 1.24305e-09, No Iterations 2
PIMPLE: Iteration 310
DILUPBiCGStab:  Solving for c, Initial residual = 0.00758206, Final residual = 4.73622e-08, No Iterations 1
GAMG:  Solving for p, Initial residual = 1.77696e-05, Final residual = 1.24156e-09, No Iterations 2
PIMPLE: Iteration 311
DILUPBiCGStab:  Solving for c, Initial residual = 0.0199251, Final residual = 3.62963e-08, No Iterations 1
GAMG:  Solving for p, Initial residual = 1.77696e-05, Final residual = 1.243e-09, No Iterations 2
PIMPLE: Iteration 312
DILUPBiCGStab:  Solving for c, Initial residual = 0.00758206, Final residual = 4.73622e-08, No Iterations 1
GAMG:  Solving for p, Initial residual = 1.77696e-05, Final residual = 1.24152e-09, No Iterations 2
PIMPLE: Iteration 313
DILUPBiCGStab:  Solving for c, Initial residual = 0.0199251, Final residual = 3.62963e-08, No Iterations 1
GAMG:  Solving for p, Initial residual = 1.77696e-05, Final residual = 1.24295e-09, No Iterations 2
PIMPLE: Iteration 314
DILUPBiCGStab:  Solving for c, Initial residual = 0.00758206, Final residual = 4.73622e-08, No Iterations 1
GAMG:  Solving for p, Initial residual = 1.77696e-05, Final residual = 1.24147e-09, No Iterations 2
PIMPLE: Iteration 315
DILUPBiCGStab:  Solving for c, Initial residual = 0.0199251, Final residual = 3.62963e-08, No Iterations 1
GAMG:  Solving for p, Initial residual = 1.77696e-05, Final residual = 1.2429e-09, No Iterations 2
PIMPLE: Iteration 316
DILUPBiCGStab:  Solving for c, Initial residual = 0.00758206, Final residual = 4.73622e-08, No Iterations 1
GAMG:  Solving for p, Initial residual = 1.77696e-05, Final residual = 1.24143e-09, No Iterations 2
PIMPLE: Iteration 317
DILUPBiCGStab:  Solving for c, Initial residual = 0.0199251, Final residual = 3.62963e-08, No Iterations 1
GAMG:  Solving for p, Initial residual = 1.77696e-05, Final residual = 1.24286e-09, No Iterations 2
PIMPLE: Iteration 318
DILUPBiCGStab:  Solving for c, Initial residual = 0.00758206, Final residual = 4.73622e-08, No Iterations 1
GAMG:  Solving for p, Initial residual = 1.77696e-05, Final residual = 1.24139e-09, No Iterations 2
PIMPLE: Iteration 319
DILUPBiCGStab:  Solving for c, Initial residual = 0.0199251, Final residual = 3.62963e-08, No Iterations 1
GAMG:  Solving for p, Initial residual = 1.77696e-05, Final residual = 1.24281e-09, No Iterations 2
PIMPLE: Iteration 320
DILUPBiCGStab:  Solving for c, Initial residual = 0.00758206, Final residual = 4.73622e-08, No Iterations 1
GAMG:  Solving for p, Initial residual = 1.77696e-05, Final residual = 1.24135e-09, No Iterations 2
PIMPLE: Iteration 321
DILUPBiCGStab:  Solving for c, Initial residual = 0.0199251, Final residual = 3.62963e-08, No Iterations 1
GAMG:  Solving for p, Initial residual = 1.77696e-05, Final residual = 1.24277e-09, No Iterations 2
PIMPLE: Iteration 322
DILUPBiCGStab:  Solving for c, Initial residual = 0.00758206, Final residual = 4.73622e-08, No Iterations 1
GAMG:  Solving for p, Initial residual = 1.77696e-05, Final residual = 1.24132e-09, No Iterations 2
PIMPLE: Iteration 323
DILUPBiCGStab:  Solving for c, Initial residual = 0.0199251, Final residual = 3.62963e-08, No Iterations 1
GAMG:  Solving for p, Initial residual = 1.77696e-05, Final residual = 1.24272e-09, No Iterations 2
PIMPLE: Iteration 324
DILUPBiCGStab:  Solving for c, Initial residual = 0.00758206, Final residual = 4.73622e-08, No Iterations 1
GAMG:  Solving for p, Initial residual = 1.77696e-05, Final residual = 1.24129e-09, No Iterations 2
PIMPLE: Iteration 325
DILUPBiCGStab:  Solving for c, Initial residual = 0.0199251, Final residual = 3.62963e-08, No Iterations 1
GAMG:  Solving for p, Initial residual = 1.77696e-05, Final residual = 1.24268e-09, No Iterations 2
PIMPLE: Iteration 326
DILUPBiCGStab:  Solving for c, Initial residual = 0.00758206, Final residual = 4.73622e-08, No Iterations 1
GAMG:  Solving for p, Initial residual = 1.77696e-05, Final residual = 1.24127e-09, No Iterations 2
PIMPLE: Iteration 327
DILUPBiCGStab:  Solving for c, Initial residual = 0.0199251, Final residual = 3.62963e-08, No Iterations 1
GAMG:  Solving for p, Initial residual = 1.77696e-05, Final residual = 1.24263e-09, No Iterations 2
PIMPLE: Iteration 328
DILUPBiCGStab:  Solving for c, Initial residual = 0.00758206, Final residual = 4.73622e-08, No Iterations 1
GAMG:  Solving for p, Initial residual = 1.77696e-05, Final residual = 1.24125e-09, No Iterations 2
PIMPLE: Iteration 329
DILUPBiCGStab:  Solving for c, Initial residual = 0.0199251, Final residual = 3.62963e-08, No Iterations 1
GAMG:  Solving for p, Initial residual = 1.77696e-05, Final residual = 1.24259e-09, No Iterations 2
PIMPLE: Iteration 330
DILUPBiCGStab:  Solving for c, Initial residual = 0.00758206, Final residual = 4.73622e-08, No Iterations 1
GAMG:  Solving for p, Initial residual = 1.77696e-05, Final residual = 1.24123e-09, No Iterations 2
PIMPLE: Iteration 331
DILUPBiCGStab:  Solving for c, Initial residual = 0.0199251, Final residual = 3.62963e-08, No Iterations 1
GAMG:  Solving for p, Initial residual = 1.77696e-05, Final residual = 1.24255e-09, No Iterations 2
PIMPLE: Iteration 332
DILUPBiCGStab:  Solving for c, Initial residual = 0.00758206, Final residual = 4.73622e-08, No Iterations 1
GAMG:  Solving for p, Initial residual = 1.77696e-05, Final residual = 1.24121e-09, No Iterations 2
PIMPLE: Iteration 333
DILUPBiCGStab:  Solving for c, Initial residual = 0.0199251, Final residual = 3.62963e-08, No Iterations 1
GAMG:  Solving for p, Initial residual = 1.77696e-05, Final residual = 1.24251e-09, No Iterations 2
PIMPLE: Iteration 334
DILUPBiCGStab:  Solving for c, Initial residual = 0.00758206, Final residual = 4.73622e-08, No Iterations 1
GAMG:  Solving for p, Initial residual = 1.77696e-05, Final residual = 1.24118e-09, No Iterations 2
PIMPLE: Iteration 335
DILUPBiCGStab:  Solving for c, Initial residual = 0.0199251, Final residual = 3.62963e-08, No Iterations 1
GAMG:  Solving for p, Initial residual = 1.77696e-05, Final residual = 1.24247e-09, No Iterations 2
PIMPLE: Iteration 336
DILUPBiCGStab:  Solving for c, Initial residual = 0.00758206, Final residual = 4.73622e-08, No Iterations 1
GAMG:  Solving for p, Initial residual = 1.77696e-05, Final residual = 1.24116e-09, No Iterations 2
PIMPLE: Iteration 337
DILUPBiCGStab:  Solving for c, Initial residual = 0.0199251, Final residual = 3.62963e-08, No Iterations 1
GAMG:  Solving for p, Initial residual = 1.77696e-05, Final residual = 1.24243e-09, No Iterations 2
PIMPLE: Iteration 338
DILUPBiCGStab:  Solving for c, Initial residual = 0.00758206, Final residual = 4.73622e-08, No Iterations 1
GAMG:  Solving for p, Initial residual = 1.77696e-05, Final residual = 1.24114e-09, No Iterations 2
PIMPLE: Iteration 339
DILUPBiCGStab:  Solving for c, Initial residual = 0.0199251, Final residual = 3.62963e-08, No Iterations 1
GAMG:  Solving for p, Initial residual = 1.77696e-05, Final residual = 1.24239e-09, No Iterations 2
PIMPLE: Iteration 340
DILUPBiCGStab:  Solving for c, Initial residual = 0.00758206, Final residual = 4.73622e-08, No Iterations 1
GAMG:  Solving for p, Initial residual = 1.77696e-05, Final residual = 1.24112e-09, No Iterations 2
PIMPLE: Iteration 341
DILUPBiCGStab:  Solving for c, Initial residual = 0.0199251, Final residual = 3.62963e-08, No Iterations 1
GAMG:  Solving for p, Initial residual = 1.77696e-05, Final residual = 1.24235e-09, No Iterations 2
PIMPLE: Iteration 342
DILUPBiCGStab:  Solving for c, Initial residual = 0.00758206, Final residual = 4.73622e-08, No Iterations 1
GAMG:  Solving for p, Initial residual = 1.77696e-05, Final residual = 1.2411e-09, No Iterations 2
PIMPLE: Iteration 343
DILUPBiCGStab:  Solving for c, Initial residual = 0.0199251, Final residual = 3.62963e-08, No Iterations 1
