
The following have been reloaded with a version change:
  1) GCC/10.2.0 => GCC/9.3.0
  2) GCCcore/10.2.0 => GCCcore/9.3.0
  3) OpenMPI/4.0.5-GCC-10.2.0 => OpenMPI/4.0.3-GCC-9.3.0
  4) PMIx/3.1.5-GCCcore-10.2.0 => PMIx/3.1.5-GCCcore-9.3.0
  5) UCX/1.9.0-GCCcore-10.2.0 => UCX/1.8.0-GCCcore-9.3.0
  6) XZ/5.2.5-GCCcore-10.2.0 => XZ/5.2.5-GCCcore-9.3.0
  7) binutils/2.35-GCCcore-10.2.0 => binutils/2.34-GCCcore-9.3.0
  8) hwloc/2.2.0-GCCcore-10.2.0 => hwloc/2.2.0-GCCcore-9.3.0
  9) libevent/2.1.12-GCCcore-10.2.0 => libevent/2.1.11-GCCcore-9.3.0
 10) libfabric/1.11.0-GCCcore-10.2.0 => libfabric/1.11.0-GCCcore-9.3.0
 11) libpciaccess/0.16-GCCcore-10.2.0 => libpciaccess/0.16-GCCcore-9.3.0
 12) libxml2/2.9.10-GCCcore-10.2.0 => libxml2/2.9.10-GCCcore-9.3.0
 13) numactl/2.0.13-GCCcore-10.2.0 => numactl/2.0.13-GCCcore-9.3.0
 14) zlib/1.2.11-GCCcore-10.2.0 => zlib/1.2.11-GCCcore-9.3.0

/*---------------------------------------------------------------------------*\
  =========                 |
  \\      /  F ield         | OpenFOAM: The Open Source CFD Toolbox
   \\    /   O peration     | Website:  https://openfoam.org
    \\  /    A nd           | Version:  8
     \\/     M anipulation  |
\*---------------------------------------------------------------------------*/
Build  : 8
Exec   : reconstructParMesh -constant
Date   : Nov 29 2021
Time   : 13:56:05
Host   : "pockels07.clusterpockels.net"
PID    : 86379
I/O    : uncollated
Case   : /home/juan/viscfingCo01
nProcs : 1
sigFpe : Enabling floating point exception trapping (FOAM_SIGFPE).
fileModificationChecking : Monitoring run-time modified files using timeStampMaster (fileModificationSkew 10)
allowSystemOperations : Allowing user-supplied system call operations

// * * * * * * * * * * * * * * * * * * * * * * * * * * * * * * * * * * * * * //
Create time

This is an experimental tool which tries to merge individual processor
meshes back into one master mesh. Use it if the original master mesh has
been deleted or if the processor meshes have been modified (topology change).
This tool will write the resulting mesh to a new time step and construct
xxxxProcAddressing files in the processor meshes so reconstructPar can be
used to regenerate the fields on the master mesh.

Not well tested & use at your own risk!

Merge tolerance : 1e-07
Write tolerance : 1e-06
Doing geometric matching on correct procBoundaries only.
This assumes a correct decomposition.
Found 24 processor directories

Reading database "viscfingCo01/processor0"
Reading database "viscfingCo01/processor1"
Reading database "viscfingCo01/processor2"
Reading database "viscfingCo01/processor3"
Reading database "viscfingCo01/processor4"
Reading database "viscfingCo01/processor5"
Reading database "viscfingCo01/processor6"
Reading database "viscfingCo01/processor7"
Reading database "viscfingCo01/processor8"
Reading database "viscfingCo01/processor9"
Reading database "viscfingCo01/processor10"
Reading database "viscfingCo01/processor11"
Reading database "viscfingCo01/processor12"
Reading database "viscfingCo01/processor13"
Reading database "viscfingCo01/processor14"
Reading database "viscfingCo01/processor15"
Reading database "viscfingCo01/processor16"
Reading database "viscfingCo01/processor17"
Reading database "viscfingCo01/processor18"
Reading database "viscfingCo01/processor19"
Reading database "viscfingCo01/processor20"
Reading database "viscfingCo01/processor21"
Reading database "viscfingCo01/processor22"
Reading database "viscfingCo01/processor23"
Time = constant

Reading points from "viscfingCo01/processor0" for time = constant

Reading points from "viscfingCo01/processor1" for time = constant

Reading points from "viscfingCo01/processor2" for time = constant

Reading points from "viscfingCo01/processor3" for time = constant

Reading points from "viscfingCo01/processor4" for time = constant

Reading points from "viscfingCo01/processor5" for time = constant

Reading points from "viscfingCo01/processor6" for time = constant

Reading points from "viscfingCo01/processor7" for time = constant

Reading points from "viscfingCo01/processor8" for time = constant

Reading points from "viscfingCo01/processor9" for time = constant

Reading points from "viscfingCo01/processor10" for time = constant

Reading points from "viscfingCo01/processor11" for time = constant

Reading points from "viscfingCo01/processor12" for time = constant

Reading points from "viscfingCo01/processor13" for time = constant

Reading points from "viscfingCo01/processor14" for time = constant

Reading points from "viscfingCo01/processor15" for time = constant

Reading points from "viscfingCo01/processor16" for time = constant

Reading points from "viscfingCo01/processor17" for time = constant

Reading points from "viscfingCo01/processor18" for time = constant

Reading points from "viscfingCo01/processor19" for time = constant

Reading points from "viscfingCo01/processor20" for time = constant

Reading points from "viscfingCo01/processor21" for time = constant

Reading points from "viscfingCo01/processor22" for time = constant

Reading points from "viscfingCo01/processor23" for time = constant

Overall mesh bounding box  : (0 0 0) (20 1 1)
Relative tolerance         : 1e-07
Absolute matching distance : 2.00499e-06

Merging mesh 0 with 1
Merging mesh 2 with 3
Merging mesh 4 with 5
Merging mesh 6 with 7
Merging mesh 8 with 9
Merging mesh 10 with 11
Merging mesh 12 with 13
Merging mesh 14 with 15
Merging mesh 16 with 17
Merging mesh 18 with 19
Merging mesh 20 with 21
Merging mesh 22 with 23
Merging mesh 0 with 2
Merging mesh 4 with 6
Merging mesh 8 with 10
Merging mesh 12 with 14
Merging mesh 16 with 18
Merging mesh 20 with 22
Merging mesh 0 with 4
Merging mesh 8 with 12
Merging mesh 16 with 20
Merging mesh 0 with 8
Merging mesh 0 with 16
Reading mesh to add from "viscfingCo01/processor0" for time = constant


Reading mesh to add from "viscfingCo01/processor1" for time = constant


Reading mesh to add from "viscfingCo01/processor2" for time = constant


Reading mesh to add from "viscfingCo01/processor3" for time = constant


Reading mesh to add from "viscfingCo01/processor4" for time = constant


Reading mesh to add from "viscfingCo01/processor5" for time = constant


Reading mesh to add from "viscfingCo01/processor6" for time = constant


Reading mesh to add from "viscfingCo01/processor7" for time = constant


Reading mesh to add from "viscfingCo01/processor8" for time = constant


Reading mesh to add from "viscfingCo01/processor9" for time = constant


Reading mesh to add from "viscfingCo01/processor10" for time = constant


Reading mesh to add from "viscfingCo01/processor11" for time = constant


Reading mesh to add from "viscfingCo01/processor12" for time = constant


Reading mesh to add from "viscfingCo01/processor13" for time = constant


Reading mesh to add from "viscfingCo01/processor14" for time = constant


Reading mesh to add from "viscfingCo01/processor15" for time = constant


Reading mesh to add from "viscfingCo01/processor16" for time = constant


Reading mesh to add from "viscfingCo01/processor17" for time = constant


Reading mesh to add from "viscfingCo01/processor18" for time = constant


Reading mesh to add from "viscfingCo01/processor19" for time = constant


Reading mesh to add from "viscfingCo01/processor20" for time = constant


Reading mesh to add from "viscfingCo01/processor21" for time = constant


Reading mesh to add from "viscfingCo01/processor22" for time = constant


Reading mesh to add from "viscfingCo01/processor23" for time = constant


mergeSharedPoints : detected 0 points that are to be merged.

Writing merged mesh to "/home/juan/viscfingCo01/constant"

Reconstructing the addressing from the processor meshes to the newly reconstructed mesh

Reading processor 0 mesh from "viscfingCo01/processor0"
Writing pointProcAddressing to "viscfingCo01/processor0/constant/polyMesh"
Writing faceProcAddressing to "viscfingCo01/processor0/constant/polyMesh"
Writing cellProcAddressing to "viscfingCo01/processor0/constant/polyMesh"
Writing boundaryProcAddressing to "viscfingCo01/processor0/constant/polyMesh"

Reading processor 1 mesh from "viscfingCo01/processor1"
Writing pointProcAddressing to "viscfingCo01/processor1/constant/polyMesh"
Writing faceProcAddressing to "viscfingCo01/processor1/constant/polyMesh"
Writing cellProcAddressing to "viscfingCo01/processor1/constant/polyMesh"
Writing boundaryProcAddressing to "viscfingCo01/processor1/constant/polyMesh"

Reading processor 2 mesh from "viscfingCo01/processor2"
Writing pointProcAddressing to "viscfingCo01/processor2/constant/polyMesh"
Writing faceProcAddressing to "viscfingCo01/processor2/constant/polyMesh"
Writing cellProcAddressing to "viscfingCo01/processor2/constant/polyMesh"
Writing boundaryProcAddressing to "viscfingCo01/processor2/constant/polyMesh"

Reading processor 3 mesh from "viscfingCo01/processor3"
Writing pointProcAddressing to "viscfingCo01/processor3/constant/polyMesh"
Writing faceProcAddressing to "viscfingCo01/processor3/constant/polyMesh"
Writing cellProcAddressing to "viscfingCo01/processor3/constant/polyMesh"
Writing boundaryProcAddressing to "viscfingCo01/processor3/constant/polyMesh"

Reading processor 4 mesh from "viscfingCo01/processor4"
Writing pointProcAddressing to "viscfingCo01/processor4/constant/polyMesh"
Writing faceProcAddressing to "viscfingCo01/processor4/constant/polyMesh"
Writing cellProcAddressing to "viscfingCo01/processor4/constant/polyMesh"
Writing boundaryProcAddressing to "viscfingCo01/processor4/constant/polyMesh"

Reading processor 5 mesh from "viscfingCo01/processor5"
Writing pointProcAddressing to "viscfingCo01/processor5/constant/polyMesh"
Writing faceProcAddressing to "viscfingCo01/processor5/constant/polyMesh"
Writing cellProcAddressing to "viscfingCo01/processor5/constant/polyMesh"
Writing boundaryProcAddressing to "viscfingCo01/processor5/constant/polyMesh"

Reading processor 6 mesh from "viscfingCo01/processor6"
Writing pointProcAddressing to "viscfingCo01/processor6/constant/polyMesh"
Writing faceProcAddressing to "viscfingCo01/processor6/constant/polyMesh"
Writing cellProcAddressing to "viscfingCo01/processor6/constant/polyMesh"
Writing boundaryProcAddressing to "viscfingCo01/processor6/constant/polyMesh"

Reading processor 7 mesh from "viscfingCo01/processor7"
Writing pointProcAddressing to "viscfingCo01/processor7/constant/polyMesh"
Writing faceProcAddressing to "viscfingCo01/processor7/constant/polyMesh"
Writing cellProcAddressing to "viscfingCo01/processor7/constant/polyMesh"
Writing boundaryProcAddressing to "viscfingCo01/processor7/constant/polyMesh"

Reading processor 8 mesh from "viscfingCo01/processor8"
Writing pointProcAddressing to "viscfingCo01/processor8/constant/polyMesh"
Writing faceProcAddressing to "viscfingCo01/processor8/constant/polyMesh"
Writing cellProcAddressing to "viscfingCo01/processor8/constant/polyMesh"
Writing boundaryProcAddressing to "viscfingCo01/processor8/constant/polyMesh"

Reading processor 9 mesh from "viscfingCo01/processor9"
Writing pointProcAddressing to "viscfingCo01/processor9/constant/polyMesh"
Writing faceProcAddressing to "viscfingCo01/processor9/constant/polyMesh"
Writing cellProcAddressing to "viscfingCo01/processor9/constant/polyMesh"
Writing boundaryProcAddressing to "viscfingCo01/processor9/constant/polyMesh"

Reading processor 10 mesh from "viscfingCo01/processor10"
Writing pointProcAddressing to "viscfingCo01/processor10/constant/polyMesh"
Writing faceProcAddressing to "viscfingCo01/processor10/constant/polyMesh"
Writing cellProcAddressing to "viscfingCo01/processor10/constant/polyMesh"
Writing boundaryProcAddressing to "viscfingCo01/processor10/constant/polyMesh"

Reading processor 11 mesh from "viscfingCo01/processor11"
Writing pointProcAddressing to "viscfingCo01/processor11/constant/polyMesh"
Writing faceProcAddressing to "viscfingCo01/processor11/constant/polyMesh"
Writing cellProcAddressing to "viscfingCo01/processor11/constant/polyMesh"
Writing boundaryProcAddressing to "viscfingCo01/processor11/constant/polyMesh"

Reading processor 12 mesh from "viscfingCo01/processor12"
Writing pointProcAddressing to "viscfingCo01/processor12/constant/polyMesh"
Writing faceProcAddressing to "viscfingCo01/processor12/constant/polyMesh"
Writing cellProcAddressing to "viscfingCo01/processor12/constant/polyMesh"
Writing boundaryProcAddressing to "viscfingCo01/processor12/constant/polyMesh"

Reading processor 13 mesh from "viscfingCo01/processor13"
Writing pointProcAddressing to "viscfingCo01/processor13/constant/polyMesh"
Writing faceProcAddressing to "viscfingCo01/processor13/constant/polyMesh"
Writing cellProcAddressing to "viscfingCo01/processor13/constant/polyMesh"
Writing boundaryProcAddressing to "viscfingCo01/processor13/constant/polyMesh"

Reading processor 14 mesh from "viscfingCo01/processor14"
Writing pointProcAddressing to "viscfingCo01/processor14/constant/polyMesh"
Writing faceProcAddressing to "viscfingCo01/processor14/constant/polyMesh"
Writing cellProcAddressing to "viscfingCo01/processor14/constant/polyMesh"
Writing boundaryProcAddressing to "viscfingCo01/processor14/constant/polyMesh"

Reading processor 15 mesh from "viscfingCo01/processor15"
Writing pointProcAddressing to "viscfingCo01/processor15/constant/polyMesh"
Writing faceProcAddressing to "viscfingCo01/processor15/constant/polyMesh"
Writing cellProcAddressing to "viscfingCo01/processor15/constant/polyMesh"
Writing boundaryProcAddressing to "viscfingCo01/processor15/constant/polyMesh"

Reading processor 16 mesh from "viscfingCo01/processor16"
Writing pointProcAddressing to "viscfingCo01/processor16/constant/polyMesh"
Writing faceProcAddressing to "viscfingCo01/processor16/constant/polyMesh"
Writing cellProcAddressing to "viscfingCo01/processor16/constant/polyMesh"
Writing boundaryProcAddressing to "viscfingCo01/processor16/constant/polyMesh"

Reading processor 17 mesh from "viscfingCo01/processor17"
Writing pointProcAddressing to "viscfingCo01/processor17/constant/polyMesh"
Writing faceProcAddressing to "viscfingCo01/processor17/constant/polyMesh"
Writing cellProcAddressing to "viscfingCo01/processor17/constant/polyMesh"
Writing boundaryProcAddressing to "viscfingCo01/processor17/constant/polyMesh"

Reading processor 18 mesh from "viscfingCo01/processor18"
Writing pointProcAddressing to "viscfingCo01/processor18/constant/polyMesh"
Writing faceProcAddressing to "viscfingCo01/processor18/constant/polyMesh"
Writing cellProcAddressing to "viscfingCo01/processor18/constant/polyMesh"
Writing boundaryProcAddressing to "viscfingCo01/processor18/constant/polyMesh"

Reading processor 19 mesh from "viscfingCo01/processor19"
Writing pointProcAddressing to "viscfingCo01/processor19/constant/polyMesh"
Writing faceProcAddressing to "viscfingCo01/processor19/constant/polyMesh"
Writing cellProcAddressing to "viscfingCo01/processor19/constant/polyMesh"
Writing boundaryProcAddressing to "viscfingCo01/processor19/constant/polyMesh"

Reading processor 20 mesh from "viscfingCo01/processor20"
Writing pointProcAddressing to "viscfingCo01/processor20/constant/polyMesh"
Writing faceProcAddressing to "viscfingCo01/processor20/constant/polyMesh"
Writing cellProcAddressing to "viscfingCo01/processor20/constant/polyMesh"
Writing boundaryProcAddressing to "viscfingCo01/processor20/constant/polyMesh"

Reading processor 21 mesh from "viscfingCo01/processor21"
Writing pointProcAddressing to "viscfingCo01/processor21/constant/polyMesh"
Writing faceProcAddressing to "viscfingCo01/processor21/constant/polyMesh"
Writing cellProcAddressing to "viscfingCo01/processor21/constant/polyMesh"
Writing boundaryProcAddressing to "viscfingCo01/processor21/constant/polyMesh"

Reading processor 22 mesh from "viscfingCo01/processor22"
Writing pointProcAddressing to "viscfingCo01/processor22/constant/polyMesh"
Writing faceProcAddressing to "viscfingCo01/processor22/constant/polyMesh"
Writing cellProcAddressing to "viscfingCo01/processor22/constant/polyMesh"
Writing boundaryProcAddressing to "viscfingCo01/processor22/constant/polyMesh"

Reading processor 23 mesh from "viscfingCo01/processor23"
Writing pointProcAddressing to "viscfingCo01/processor23/constant/polyMesh"
Writing faceProcAddressing to "viscfingCo01/processor23/constant/polyMesh"
Writing cellProcAddressing to "viscfingCo01/processor23/constant/polyMesh"
Writing boundaryProcAddressing to "viscfingCo01/processor23/constant/polyMesh"

Time = 0.5

No mesh.

Time = 1

No mesh.

Time = 1.5

No mesh.

Time = 2

No mesh.

Time = 2.5

No mesh.

Time = 3

No mesh.

Time = 3.5

No mesh.

Time = 4

No mesh.

Time = 4.5

No mesh.

Time = 5

No mesh.

Time = 5.5

No mesh.

Time = 6

No mesh.

Time = 6.5

No mesh.

Time = 7

No mesh.

Time = 7.5

No mesh.

Time = 8

No mesh.

Time = 8.5

No mesh.

Time = 9

No mesh.

Time = 9.5

No mesh.

Time = 10

No mesh.

End.

/*---------------------------------------------------------------------------*\
  =========                 |
  \\      /  F ield         | OpenFOAM: The Open Source CFD Toolbox
   \\    /   O peration     | Website:  https://openfoam.org
    \\  /    A nd           | Version:  8
     \\/     M anipulation  |
\*---------------------------------------------------------------------------*/
Build  : 8
Exec   : reconstructPar -fields (c)
Date   : Nov 29 2021
Time   : 13:56:12
Host   : "pockels07.clusterpockels.net"
PID    : 86382
I/O    : uncollated
Case   : /home/juan/viscfingCo01
nProcs : 1
sigFpe : Enabling floating point exception trapping (FOAM_SIGFPE).
fileModificationChecking : Monitoring run-time modified files using timeStampMaster (fileModificationSkew 10)
allowSystemOperations : Allowing user-supplied system call operations

// * * * * * * * * * * * * * * * * * * * * * * * * * * * * * * * * * * * * * //
Create time



Reconstructing fields for mesh region0

Time = 0.5

Reconstructing FV fields

    Reconstructing volScalarFields

        c

    Reconstructing volVectorFields


    Reconstructing volSymmTensorFields


    Reconstructing surfaceSymmTensorFields


Reconstructing point fields

No point fields

No lagrangian fields

Time = 1

Reconstructing FV fields

    Reconstructing volScalarFields

        c

    Reconstructing volVectorFields


    Reconstructing volSymmTensorFields


    Reconstructing surfaceSymmTensorFields


Reconstructing point fields

No point fields

No lagrangian fields

Time = 1.5

Reconstructing FV fields

    Reconstructing volScalarFields

        c

    Reconstructing volVectorFields


    Reconstructing volSymmTensorFields


    Reconstructing surfaceSymmTensorFields


Reconstructing point fields

No point fields

No lagrangian fields

Time = 2

Reconstructing FV fields

    Reconstructing volScalarFields

        c

    Reconstructing volVectorFields


    Reconstructing volSymmTensorFields


    Reconstructing surfaceSymmTensorFields


Reconstructing point fields

No point fields

No lagrangian fields

Time = 2.5

Reconstructing FV fields

    Reconstructing volScalarFields

        c

    Reconstructing volVectorFields


    Reconstructing volSymmTensorFields


    Reconstructing surfaceSymmTensorFields


Reconstructing point fields

No point fields

No lagrangian fields

Time = 3

Reconstructing FV fields

    Reconstructing volScalarFields

        c

    Reconstructing volVectorFields


    Reconstructing volSymmTensorFields


    Reconstructing surfaceSymmTensorFields


Reconstructing point fields

No point fields

No lagrangian fields

Time = 3.5

Reconstructing FV fields

    Reconstructing volScalarFields

        c

    Reconstructing volVectorFields


    Reconstructing volSymmTensorFields


    Reconstructing surfaceSymmTensorFields


Reconstructing point fields

No point fields

No lagrangian fields

Time = 4

Reconstructing FV fields

    Reconstructing volScalarFields

        c

    Reconstructing volVectorFields


    Reconstructing volSymmTensorFields


    Reconstructing surfaceSymmTensorFields


Reconstructing point fields

No point fields

No lagrangian fields

Time = 4.5

Reconstructing FV fields

    Reconstructing volScalarFields

        c

    Reconstructing volVectorFields


    Reconstructing volSymmTensorFields


    Reconstructing surfaceSymmTensorFields


Reconstructing point fields

No point fields

No lagrangian fields

Time = 5

Reconstructing FV fields

    Reconstructing volScalarFields

        c

    Reconstructing volVectorFields


    Reconstructing volSymmTensorFields


    Reconstructing surfaceSymmTensorFields


Reconstructing point fields

No point fields

No lagrangian fields

Time = 5.5

Reconstructing FV fields

    Reconstructing volScalarFields

        c

    Reconstructing volVectorFields


    Reconstructing volSymmTensorFields


    Reconstructing surfaceSymmTensorFields


Reconstructing point fields

No point fields

No lagrangian fields

Time = 6

Reconstructing FV fields

    Reconstructing volScalarFields

        c

    Reconstructing volVectorFields


    Reconstructing volSymmTensorFields


    Reconstructing surfaceSymmTensorFields


Reconstructing point fields

No point fields

No lagrangian fields

Time = 6.5

Reconstructing FV fields

    Reconstructing volScalarFields

        c

    Reconstructing volVectorFields


    Reconstructing volSymmTensorFields


    Reconstructing surfaceSymmTensorFields


Reconstructing point fields

No point fields

No lagrangian fields

Time = 7

Reconstructing FV fields

    Reconstructing volScalarFields

        c

    Reconstructing volVectorFields


    Reconstructing volSymmTensorFields


    Reconstructing surfaceSymmTensorFields


Reconstructing point fields

No point fields

No lagrangian fields

Time = 7.5

Reconstructing FV fields

    Reconstructing volScalarFields

        c

    Reconstructing volVectorFields


    Reconstructing volSymmTensorFields


    Reconstructing surfaceSymmTensorFields


Reconstructing point fields

No point fields

No lagrangian fields

Time = 8

Reconstructing FV fields

    Reconstructing volScalarFields

        c

    Reconstructing volVectorFields


    Reconstructing volSymmTensorFields


    Reconstructing surfaceSymmTensorFields


Reconstructing point fields

No point fields

No lagrangian fields

Time = 8.5

Reconstructing FV fields

    Reconstructing volScalarFields

        c

    Reconstructing volVectorFields


    Reconstructing volSymmTensorFields


    Reconstructing surfaceSymmTensorFields


Reconstructing point fields

No point fields

No lagrangian fields

Time = 9

Reconstructing FV fields

    Reconstructing volScalarFields

        c

    Reconstructing volVectorFields


    Reconstructing volSymmTensorFields


    Reconstructing surfaceSymmTensorFields


Reconstructing point fields

No point fields

No lagrangian fields

Time = 9.5

Reconstructing FV fields

    Reconstructing volScalarFields

        c

    Reconstructing volVectorFields


    Reconstructing volSymmTensorFields


    Reconstructing surfaceSymmTensorFields


Reconstructing point fields

No point fields

No lagrangian fields

Time = 10

Reconstructing FV fields

    Reconstructing volScalarFields

        c

    Reconstructing volVectorFields


    Reconstructing volSymmTensorFields


    Reconstructing surfaceSymmTensorFields


Reconstructing point fields

No point fields

No lagrangian fields


End

