/*---------------------------------------------------------------------------*\
  =========                 |
  \\      /  F ield         | OpenFOAM: The Open Source CFD Toolbox
   \\    /   O peration     | Website:  https://openfoam.org
    \\  /    A nd           | Version:  8
     \\/     M anipulation  |
\*---------------------------------------------------------------------------*/
Build  : 8-1c9b5879390b
Exec   : rhoDarcyFoam
Date   : May 21 2021
Time   : 16:10:52
Host   : "ord2249"
PID    : 184624
I/O    : uncollated
Case   : /home/juan/testrhoDarcyFoam/HenryHet2D/transient
nProcs : 1
sigFpe : Enabling floating point exception trapping (FOAM_SIGFPE).
fileModificationChecking : Monitoring run-time modified files using timeStampMaster (fileModificationSkew 10)
allowSystemOperations : Allowing user-supplied system call operations

// * * * * * * * * * * * * * * * * * * * * * * * * * * * * * * * * * * * * * //
Create time

Create mesh for time = 0


PIMPLE: Convergence criteria found
        p: tolerance 1e-08
        c: tolerance 1e-08


PIMPLE: Corrector convergence criteria found
        p: tolerance 1e-08, relTol 0.0001
        c: tolerance 1e-08, relTol 0.0001
        Calculations will do 500 corrections if the convergence criteria are not met


PIMPLE: Operating solver in transient mode with 500 outer correctors



Reading g

Reading field c

Reading transportProperties

Creating viscosity mu

Selecting viscosity model => constantViscosity


Creating density rho

Selecting density model => linearDensity


Reading hRef

Calculating field g.h

Incompressibility is 1


Standard compressibility is 0

hydrostaticPressure is 0

Reading field p
Using dynamicCode for fixedValueFvPatchField right at line 20140 in "/home/juan/testrhoDarcyFoam/HenryHet2D/transient/0/p/boundaryField/right"
Creating new library in "dynamicCode/right/platforms/linux64GccDPInt32Opt/lib/libright_52e5cdee863cd79fe6db56ac6210a02c31b71429.so"
Invoking "wmake -s libso /home/juan/testrhoDarcyFoam/HenryHet2D/transient/dynamicCode/right"
wmake libso /home/juan/testrhoDarcyFoam/HenryHet2D/transient/dynamicCode/right
    ln: ./lnInclude
    wmkdep: fixedValueFvPatchFieldTemplate.C
    Ctoo: fixedValueFvPatchFieldTemplate.C
    ld: /home/juan/testrhoDarcyFoam/HenryHet2D/transient/dynamicCode/right/../platforms/linux64GccDPInt32Opt/lib/libright_52e5cdee863cd79fe6db56ac6210a02c31b71429.so

Reading field p_rgh

Reading porosity beta

Reading storativity Ss

Reading permeability field K

Calculating face flux field phi

Calculating field U

dispersionModel is 0
Mean dispersion tensor is (6.6e-11 0 0 6.6e-11 0 6.6e-11)
No finite volume options present
Courant Number mean: 2.00789 max: 3853.69

Time = 0.000518982

PIMPLE: Iteration 1
DILUPBiCGStab:  Solving for c, Initial residual = 1, Final residual = 2.10395e-07, No Iterations 1
GAMG:  Solving for p, Initial residual = 0.000174233, Final residual = 5.61727e-08, No Iterations 4
PIMPLE: Iteration 2
DILUPBiCGStab:  Solving for c, Initial residual = 0.334579, Final residual = 1.02417e-08, No Iterations 1
GAMG:  Solving for p, Initial residual = 0.000119684, Final residual = 4.69068e-08, No Iterations 4
PIMPLE: Iteration 3
DILUPBiCGStab:  Solving for c, Initial residual = 0.486879, Final residual = 1.21376e-08, No Iterations 1
GAMG:  Solving for p, Initial residual = 7.97308e-08, Final residual = 8.51455e-11, No Iterations 8
PIMPLE: Iteration 4
DILUPBiCGStab:  Solving for c, Initial residual = 7.07818e-05, Final residual = 1.05607e-12, No Iterations 1
GAMG:  Solving for p, Initial residual = 8.95009e-11, Final residual = 8.95009e-11, No Iterations 0
PIMPLE: Converged 
        Doing final iteration
PIMPLE: Iteration 5
DILUPBiCGStab:  Solving for c, Initial residual = 1.8576e-08, Final residual = 1.77567e-16, No Iterations 1
GAMG:  Solving for p, Initial residual = 8.94992e-11, Final residual = 8.94992e-11, No Iterations 0
PIMPLE: Converged in 5 iterations
time step continuity errors : sum local = 2.01958e-13, global = -1.28558e-14, cumulative = -1.28558e-14
Courant Number mean: 6.39709e-06 max: 0.000213492
deltaT = 0.000622778
Mean velocity  = (6.6e-05 0 3.08863e-05)

ExecutionTime = 0.29 s  ClockTime = 5 s


Time = 0.00114176

PIMPLE: Iteration 1
DILUPBiCGStab:  Solving for c, Initial residual = 0.231189, Final residual = 2.07177e-09, No Iterations 1
GAMG:  Solving for p, Initial residual = 1.13777e-08, Final residual = 9.59911e-11, No Iterations 2
PIMPLE: Iteration 2
DILUPBiCGStab:  Solving for c, Initial residual = 4.2966e-06, Final residual = 4.45941e-14, No Iterations 1
GAMG:  Solving for p, Initial residual = 9.63094e-11, Final residual = 9.63094e-11, No Iterations 0
PIMPLE: Converged 
        Doing final iteration
PIMPLE: Iteration 3
DILUPBiCGStab:  Solving for c, Initial residual = 6.97457e-10, Final residual = 7.14367e-18, No Iterations 1
GAMG:  Solving for p, Initial residual = 9.63094e-11, Final residual = 9.63094e-11, No Iterations 0
PIMPLE: Converged in 3 iterations
time step continuity errors : sum local = 2.60791e-13, global = -3.67141e-14, cumulative = -4.95699e-14
Courant Number mean: 7.67648e-06 max: 0.000256158
deltaT = 0.000747331
Mean velocity  = (6.6e-05 0 3.0886e-05)

ExecutionTime = 0.33 s  ClockTime = 5 s


Time = 0.00188909

PIMPLE: Iteration 1
DILUPBiCGStab:  Solving for c, Initial residual = 0.140891, Final residual = 1.81798e-09, No Iterations 1
GAMG:  Solving for p, Initial residual = 1.36408e-08, Final residual = 4.48608e-11, No Iterations 3
PIMPLE: Iteration 2
DILUPBiCGStab:  Solving for c, Initial residual = 3.74762e-06, Final residual = 5.59628e-14, No Iterations 1
GAMG:  Solving for p, Initial residual = 4.55557e-11, Final residual = 4.55557e-11, No Iterations 0
PIMPLE: Converged 
        Doing final iteration
PIMPLE: Iteration 3
DILUPBiCGStab:  Solving for c, Initial residual = 7.278e-10, Final residual = 1.07912e-17, No Iterations 1
GAMG:  Solving for p, Initial residual = 4.55558e-11, Final residual = 4.55558e-11, No Iterations 0
PIMPLE: Converged in 3 iterations
time step continuity errors : sum local = 1.48029e-13, global = -1.70966e-14, cumulative = -6.66665e-14
Courant Number mean: 9.2117e-06 max: 0.000307343
deltaT = 0.000896796
Mean velocity  = (6.6e-05 0 3.08856e-05)

ExecutionTime = 0.38 s  ClockTime = 6 s


Time = 0.00278589

PIMPLE: Iteration 1
DILUPBiCGStab:  Solving for c, Initial residual = 0.106286, Final residual = 1.97495e-09, No Iterations 1
GAMG:  Solving for p, Initial residual = 1.62919e-08, Final residual = 4.10918e-11, No Iterations 3
PIMPLE: Iteration 2
DILUPBiCGStab:  Solving for c, Initial residual = 3.6558e-06, Final residual = 7.85982e-14, No Iterations 1
GAMG:  Solving for p, Initial residual = 4.21332e-11, Final residual = 4.21332e-11, No Iterations 0
PIMPLE: Converged 
        Doing final iteration
PIMPLE: Iteration 3
DILUPBiCGStab:  Solving for c, Initial residual = 8.53451e-10, Final residual = 1.83058e-17, No Iterations 1
GAMG:  Solving for p, Initial residual = 4.21335e-11, Final residual = 4.21335e-11, No Iterations 0
PIMPLE: Converged in 3 iterations
time step continuity errors : sum local = 1.6429e-13, global = -2.32464e-14, cumulative = -8.99129e-14
Courant Number mean: 1.1054e-05 max: 0.000368745
deltaT = 0.00107615
Mean velocity  = (6.6e-05 0 3.08851e-05)

ExecutionTime = 0.43 s  ClockTime = 6 s


Time = 0.00386204

PIMPLE: Iteration 1
DILUPBiCGStab:  Solving for c, Initial residual = 0.0882221, Final residual = 2.36076e-09, No Iterations 1
GAMG:  Solving for p, Initial residual = 1.95256e-08, Final residual = 4.34215e-11, No Iterations 3
PIMPLE: Iteration 2
DILUPBiCGStab:  Solving for c, Initial residual = 3.79623e-06, Final residual = 1.17467e-13, No Iterations 1
GAMG:  Solving for p, Initial residual = 4.49634e-11, Final residual = 4.49634e-11, No Iterations 0
PIMPLE: Converged 
        Doing final iteration
PIMPLE: Iteration 3
DILUPBiCGStab:  Solving for c, Initial residual = 1.06357e-09, Final residual = 3.29653e-17, No Iterations 1
GAMG:  Solving for p, Initial residual = 4.49638e-11, Final residual = 4.49638e-11, No Iterations 0
PIMPLE: Converged in 3 iterations
time step continuity errors : sum local = 2.10392e-13, global = -3.70441e-14, cumulative = -1.26957e-13
Courant Number mean: 1.32647e-05 max: 0.000442398
deltaT = 0.00129137
Mean velocity  = (6.6e-05 0 3.08846e-05)

ExecutionTime = 0.48 s  ClockTime = 6 s


Time = 0.00515341

PIMPLE: Iteration 1
DILUPBiCGStab:  Solving for c, Initial residual = 0.0772729, Final residual = 2.97785e-09, No Iterations 1
GAMG:  Solving for p, Initial residual = 2.34071e-08, Final residual = 4.85436e-11, No Iterations 3
PIMPLE: Iteration 2
DILUPBiCGStab:  Solving for c, Initial residual = 4.09505e-06, Final residual = 1.82347e-13, No Iterations 1
GAMG:  Solving for p, Initial residual = 5.08098e-11, Final residual = 5.08098e-11, No Iterations 0
PIMPLE: Converged 
        Doing final iteration
PIMPLE: Iteration 3
DILUPBiCGStab:  Solving for c, Initial residual = 1.37634e-09, Final residual = 6.15716e-17, No Iterations 1
GAMG:  Solving for p, Initial residual = 5.08105e-11, Final residual = 5.08105e-11, No Iterations 0
PIMPLE: Converged in 3 iterations
time step continuity errors : sum local = 2.85297e-13, global = -5.63395e-14, cumulative = -1.83296e-13
Courant Number mean: 1.59174e-05 max: 0.000530736
deltaT = 0.00154963
Mean velocity  = (6.6e-05 0 3.08839e-05)

ExecutionTime = 0.53 s  ClockTime = 6 s


Time = 0.00670305

PIMPLE: Iteration 1
DILUPBiCGStab:  Solving for c, Initial residual = 0.0700259, Final residual = 3.88638e-09, No Iterations 1
GAMG:  Solving for p, Initial residual = 2.80592e-08, Final residual = 5.53105e-11, No Iterations 3
PIMPLE: Iteration 2
DILUPBiCGStab:  Solving for c, Initial residual = 4.53143e-06, Final residual = 2.90334e-13, No Iterations 1
GAMG:  Solving for p, Initial residual = 5.8628e-11, Final residual = 5.8628e-11, No Iterations 0
PIMPLE: Converged 
        Doing final iteration
PIMPLE: Iteration 3
DILUPBiCGStab:  Solving for c, Initial residual = 1.82639e-09, Final residual = 1.17789e-16, No Iterations 1
GAMG:  Solving for p, Initial residual = 5.86291e-11, Final residual = 5.86291e-11, No Iterations 0
PIMPLE: Converged in 3 iterations
time step continuity errors : sum local = 3.95034e-13, global = -8.31516e-14, cumulative = -2.66448e-13
Courant Number mean: 1.91005e-05 max: 0.000636681
deltaT = 0.00185954
Mean velocity  = (6.6e-05 0 3.08831e-05)

ExecutionTime = 0.58 s  ClockTime = 6 s


Time = 0.00856259

PIMPLE: Iteration 1
DILUPBiCGStab:  Solving for c, Initial residual = 0.0649455, Final residual = 5.19106e-09, No Iterations 1
GAMG:  Solving for p, Initial residual = 3.3631e-08, Final residual = 6.39144e-11, No Iterations 3
PIMPLE: Iteration 2
DILUPBiCGStab:  Solving for c, Initial residual = 5.10522e-06, Final residual = 4.70582e-13, No Iterations 1
GAMG:  Solving for p, Initial residual = 6.87548e-11, Final residual = 6.87548e-11, No Iterations 0
PIMPLE: Converged 
        Doing final iteration
PIMPLE: Iteration 3
DILUPBiCGStab:  Solving for c, Initial residual = 2.4666e-09, Final residual = 2.29066e-16, No Iterations 1
GAMG:  Solving for p, Initial residual = 6.87566e-11, Final residual = 6.87566e-11, No Iterations 0
PIMPLE: Converged in 3 iterations
time step continuity errors : sum local = 5.55919e-13, global = -1.21019e-13, cumulative = -3.87467e-13
Courant Number mean: 2.29202e-05 max: 0.000763727
deltaT = 0.00223145
Mean velocity  = (6.6e-05 0 3.08822e-05)

ExecutionTime = 0.62 s  ClockTime = 6 s


Time = 0.010794

PIMPLE: Iteration 1
DILUPBiCGStab:  Solving for c, Initial residual = 0.0612389, Final residual = 7.04978e-09, No Iterations 1
GAMG:  Solving for p, Initial residual = 4.03018e-08, Final residual = 7.47031e-11, No Iterations 3
PIMPLE: Iteration 2
DILUPBiCGStab:  Solving for c, Initial residual = 5.82794e-06, Final residual = 7.72724e-13, No Iterations 1
GAMG:  Solving for p, Initial residual = 8.17463e-11, Final residual = 8.17463e-11, No Iterations 0
PIMPLE: Converged 
        Doing final iteration
PIMPLE: Iteration 3
DILUPBiCGStab:  Solving for c, Initial residual = 3.37397e-09, Final residual = 4.5066e-16, No Iterations 1
GAMG:  Solving for p, Initial residual = 8.17493e-11, Final residual = 8.17493e-11, No Iterations 0
PIMPLE: Converged in 3 iterations
time step continuity errors : sum local = 7.93164e-13, global = -1.75013e-13, cumulative = -5.6248e-13
Courant Number mean: 2.75039e-05 max: 0.000916065
deltaT = 0.00267773
Mean velocity  = (6.59999e-05 0 3.0881e-05)

ExecutionTime = 0.67 s  ClockTime = 6 s


Time = 0.0134718

PIMPLE: Iteration 1
DILUPBiCGStab:  Solving for c, Initial residual = 0.0584527, Final residual = 9.69188e-09, No Iterations 1
GAMG:  Solving for p, Initial residual = 4.82839e-08, Final residual = 8.8051e-11, No Iterations 3
PIMPLE: Iteration 2
DILUPBiCGStab:  Solving for c, Initial residual = 6.71898e-06, Final residual = 1.28118e-12, No Iterations 1
GAMG:  Solving for p, Initial residual = 9.82905e-11, Final residual = 9.82905e-11, No Iterations 0
PIMPLE: Iteration 3
DILUPBiCGStab:  Solving for c, Initial residual = 4.65878e-09, Final residual = 8.93886e-16, No Iterations 1
GAMG:  Solving for p, Initial residual = 9.82955e-11, Final residual = 9.82955e-11, No Iterations 0
PIMPLE: Converged 
        Doing final iteration
PIMPLE: Iteration 4
DILUPBiCGStab:  Solving for c, Initial residual = 5.49039e-12, Final residual = 5.49039e-12, No Iterations 0
GAMG:  Solving for p, Initial residual = 9.82955e-11, Final residual = 9.82955e-11, No Iterations 0
PIMPLE: Converged in 4 iterations
time step continuity errors : sum local = 1.14444e-12, global = -2.52357e-13, cumulative = -8.14836e-13
Courant Number mean: 3.30041e-05 max: 0.00109869
deltaT = 0.00321324
Mean velocity  = (6.59999e-05 0 3.08797e-05)

ExecutionTime = 0.73 s  ClockTime = 6 s


Time = 0.016685

PIMPLE: Iteration 1
DILUPBiCGStab:  Solving for c, Initial residual = 0.05631, Final residual = 1.3448e-08, No Iterations 1
GAMG:  Solving for p, Initial residual = 5.78289e-08, Final residual = 5.36081e-11, No Iterations 4
PIMPLE: Iteration 2
DILUPBiCGStab:  Solving for c, Initial residual = 7.80649e-06, Final residual = 2.14e-12, No Iterations 1
GAMG:  Solving for p, Initial residual = 6.92566e-11, Final residual = 6.92566e-11, No Iterations 0
PIMPLE: Iteration 3
DILUPBiCGStab:  Solving for c, Initial residual = 6.47675e-09, Final residual = 1.78271e-15, No Iterations 1
GAMG:  Solving for p, Initial residual = 6.92551e-11, Final residual = 6.92551e-11, No Iterations 0
PIMPLE: Converged 
        Doing final iteration
PIMPLE: Iteration 4
DILUPBiCGStab:  Solving for c, Initial residual = 9.17515e-12, Final residual = 9.17515e-12, No Iterations 0
GAMG:  Solving for p, Initial residual = 6.92551e-11, Final residual = 6.92551e-11, No Iterations 0
PIMPLE: Converged in 4 iterations
time step continuity errors : sum local = 9.67579e-13, global = -7.34482e-14, cumulative = -8.88285e-13
Courant Number mean: 3.96039e-05 max: 0.00131757
deltaT = 0.00385589
Mean velocity  = (6.6e-05 0 3.0878e-05)

ExecutionTime = 0.81 s  ClockTime = 6 s


Time = 0.0205409

PIMPLE: Iteration 1
DILUPBiCGStab:  Solving for c, Initial residual = 0.0546326, Final residual = 1.87943e-08, No Iterations 1
GAMG:  Solving for p, Initial residual = 6.91884e-08, Final residual = 4.07972e-11, No Iterations 4
PIMPLE: Iteration 2
DILUPBiCGStab:  Solving for c, Initial residual = 9.11869e-06, Final residual = 3.59322e-12, No Iterations 1
GAMG:  Solving for p, Initial residual = 6.33621e-11, Final residual = 6.33621e-11, No Iterations 0
PIMPLE: Iteration 3
DILUPBiCGStab:  Solving for c, Initial residual = 9.05528e-09, Final residual = 3.57015e-15, No Iterations 1
GAMG:  Solving for p, Initial residual = 6.33581e-11, Final residual = 6.33581e-11, No Iterations 0
PIMPLE: Converged 
        Doing final iteration
PIMPLE: Iteration 4
DILUPBiCGStab:  Solving for c, Initial residual = 1.54369e-11, Final residual = 1.54369e-11, No Iterations 0
GAMG:  Solving for p, Initial residual = 6.33581e-11, Final residual = 6.33581e-11, No Iterations 0
PIMPLE: Converged in 4 iterations
time step continuity errors : sum local = 1.06223e-12, global = -2.42789e-13, cumulative = -1.13107e-12
Courant Number mean: 4.75237e-05 max: 0.00157987
deltaT = 0.00462696
Mean velocity  = (6.6e-05 0 3.0876e-05)

ExecutionTime = 0.86 s  ClockTime = 6 s


Time = 0.0251679

PIMPLE: Iteration 1
DILUPBiCGStab:  Solving for c, Initial residual = 0.0532966, Final residual = 2.64112e-08, No Iterations 1
GAMG:  Solving for p, Initial residual = 8.27748e-08, Final residual = 5.03279e-11, No Iterations 4
PIMPLE: Iteration 2
DILUPBiCGStab:  Solving for c, Initial residual = 1.07021e-05, Final residual = 6.0591e-12, No Iterations 1
GAMG:  Solving for p, Initial residual = 8.28935e-11, Final residual = 8.28935e-11, No Iterations 0
PIMPLE: Iteration 3
DILUPBiCGStab:  Solving for c, Initial residual = 1.27059e-08, Final residual = 7.16282e-15, No Iterations 1
GAMG:  Solving for p, Initial residual = 8.2886e-11, Final residual = 8.2886e-11, No Iterations 0
PIMPLE: Converged 
        Doing final iteration
PIMPLE: Iteration 4
DILUPBiCGStab:  Solving for c, Initial residual = 2.60847e-11, Final residual = 2.60847e-11, No Iterations 0
GAMG:  Solving for p, Initial residual = 8.2886e-11, Final residual = 8.2886e-11, No Iterations 0
PIMPLE: Converged in 4 iterations
time step continuity errors : sum local = 1.66752e-12, global = -3.36553e-13, cumulative = -1.46763e-12
Courant Number mean: 5.70258e-05 max: 0.00189407
deltaT = 0.00555231
Mean velocity  = (6.6e-05 0 3.08737e-05)

ExecutionTime = 0.93 s  ClockTime = 6 s


Time = 0.0307202

PIMPLE: Iteration 1
DILUPBiCGStab:  Solving for c, Initial residual = 0.0522152, Final residual = 3.72764e-08, No Iterations 1
GAMG:  Solving for p, Initial residual = 9.90059e-08, Final residual = 6.00498e-11, No Iterations 4
PIMPLE: Iteration 2
DILUPBiCGStab:  Solving for c, Initial residual = 1.26046e-05, Final residual = 1.02298e-11, No Iterations 1
GAMG:  Solving for p, Initial residual = 1.07106e-10, Final residual = 4.05442e-11, No Iterations 1
PIMPLE: Iteration 3
DILUPBiCGStab:  Solving for c, Initial residual = 2.40226e-08, Final residual = 2.02918e-14, No Iterations 1
GAMG:  Solving for p, Initial residual = 4.06223e-11, Final residual = 4.06223e-11, No Iterations 0
PIMPLE: Converged 
        Doing final iteration
PIMPLE: Iteration 4
DILUPBiCGStab:  Solving for c, Initial residual = 5.87335e-11, Final residual = 5.87335e-11, No Iterations 0
GAMG:  Solving for p, Initial residual = 4.06223e-11, Final residual = 4.06223e-11, No Iterations 0
PIMPLE: Converged in 4 iterations
time step continuity errors : sum local = 9.80679e-13, global = -2.19046e-14, cumulative = -1.48953e-12
Courant Number mean: 6.84284e-05 max: 0.00227037
deltaT = 0.0066624
Mean velocity  = (6.6e-05 0 3.08708e-05)

ExecutionTime = 1 s  ClockTime = 6 s


Time = 0.0373826

PIMPLE: Iteration 1
DILUPBiCGStab:  Solving for c, Initial residual = 0.051324, Final residual = 5.25808e-08, No Iterations 1
GAMG:  Solving for p, Initial residual = 1.18348e-07, Final residual = 6.28068e-11, No Iterations 4
PIMPLE: Iteration 2
DILUPBiCGStab:  Solving for c, Initial residual = 1.48869e-05, Final residual = 1.73452e-11, No Iterations 1
GAMG:  Solving for p, Initial residual = 1.30814e-10, Final residual = 3.80437e-11, No Iterations 1
PIMPLE: Iteration 3
DILUPBiCGStab:  Solving for c, Initial residual = 3.43766e-08, Final residual = 4.14979e-14, No Iterations 1
GAMG:  Solving for p, Initial residual = 3.81782e-11, Final residual = 3.81782e-11, No Iterations 0
PIMPLE: Converged 
        Doing final iteration
PIMPLE: Iteration 4
DILUPBiCGStab:  Solving for c, Initial residual = 9.99112e-11, Final residual = 9.99112e-11, No Iterations 0
GAMG:  Solving for p, Initial residual = 3.81782e-11, Final residual = 3.81782e-11, No Iterations 0
PIMPLE: Converged in 4 iterations
time step continuity errors : sum local = 1.10595e-12, global = 1.00964e-14, cumulative = -1.47943e-12
Courant Number mean: 8.21067e-05 max: 0.00272072
deltaT = 0.00799445
Mean velocity  = (6.6e-05 0 3.08674e-05)

ExecutionTime = 1.06 s  ClockTime = 6 s


Time = 0.045377

PIMPLE: Iteration 1
DILUPBiCGStab:  Solving for c, Initial residual = 0.0505812, Final residual = 7.46536e-08, No Iterations 1
GAMG:  Solving for p, Initial residual = 1.4134e-07, Final residual = 7.54418e-11, No Iterations 4
PIMPLE: Iteration 2
DILUPBiCGStab:  Solving for c, Initial residual = 1.76099e-05, Final residual = 2.94396e-11, No Iterations 1
GAMG:  Solving for p, Initial residual = 1.73685e-10, Final residual = 4.69154e-11, No Iterations 1
PIMPLE: Iteration 3
DILUPBiCGStab:  Solving for c, Initial residual = 4.79295e-08, Final residual = 8.24914e-14, No Iterations 1
GAMG:  Solving for p, Initial residual = 4.71459e-11, Final residual = 4.71459e-11, No Iterations 0
PIMPLE: Converged 
        Doing final iteration
PIMPLE: Iteration 4
DILUPBiCGStab:  Solving for c, Initial residual = 1.69066e-10, Final residual = 2.60487e-16, No Iterations 1
GAMG:  Solving for p, Initial residual = 4.71444e-11, Final residual = 4.71444e-11, No Iterations 0
PIMPLE: Converged in 4 iterations
time step continuity errors : sum local = 1.63875e-12, global = 1.24465e-14, cumulative = -1.46699e-12
Courant Number mean: 9.85188e-05 max: 0.00325956
deltaT = 0.00959257
Mean velocity  = (6.6e-05 0 3.08633e-05)

ExecutionTime = 1.14 s  ClockTime = 6 s


Time = 0.0549696

PIMPLE: Iteration 1
DILUPBiCGStab:  Solving for c, Initial residual = 0.0499462, Final residual = 1.06206e-07, No Iterations 1
GAMG:  Solving for p, Initial residual = 1.68652e-07, Final residual = 9.05301e-11, No Iterations 4
PIMPLE: Iteration 2
DILUPBiCGStab:  Solving for c, Initial residual = 2.08683e-05, Final residual = 5.00234e-11, No Iterations 1
GAMG:  Solving for p, Initial residual = 2.32455e-10, Final residual = 5.69463e-11, No Iterations 1
PIMPLE: Iteration 3
DILUPBiCGStab:  Solving for c, Initial residual = 6.71004e-08, Final residual = 1.64116e-13, No Iterations 1
GAMG:  Solving for p, Initial residual = 5.73419e-11, Final residual = 5.73419e-11, No Iterations 0
PIMPLE: Converged 
        Doing final iteration
PIMPLE: Iteration 4
DILUPBiCGStab:  Solving for c, Initial residual = 2.86944e-10, Final residual = 6.2357e-16, No Iterations 1
GAMG:  Solving for p, Initial residual = 5.7339e-11, Final residual = 5.7339e-11, No Iterations 0
PIMPLE: Converged in 4 iterations
time step continuity errors : sum local = 2.39152e-12, global = 1.04214e-14, cumulative = -1.45657e-12
Courant Number mean: 0.000118207 max: 0.00390383
deltaT = 0.0115104
Mean velocity  = (6.6e-05 0 3.08585e-05)

ExecutionTime = 1.21 s  ClockTime = 6 s


Time = 0.06648

PIMPLE: Iteration 1
DILUPBiCGStab:  Solving for c, Initial residual = 0.0493989, Final residual = 1.51361e-07, No Iterations 1
GAMG:  Solving for p, Initial residual = 2.01021e-07, Final residual = 1.08681e-10, No Iterations 4
PIMPLE: Iteration 2
DILUPBiCGStab:  Solving for c, Initial residual = 2.47624e-05, Final residual = 8.50536e-11, No Iterations 1
GAMG:  Solving for p, Initial residual = 3.13715e-10, Final residual = 6.94406e-11, No Iterations 1
PIMPLE: Iteration 3
DILUPBiCGStab:  Solving for c, Initial residual = 9.40437e-08, Final residual = 3.25844e-13, No Iterations 1
GAMG:  Solving for p, Initial residual = 7.00967e-11, Final residual = 7.00967e-11, No Iterations 0
PIMPLE: Converged 
        Doing final iteration
PIMPLE: Iteration 4
DILUPBiCGStab:  Solving for c, Initial residual = 4.88208e-10, Final residual = 1.49005e-15, No Iterations 1
GAMG:  Solving for p, Initial residual = 7.00909e-11, Final residual = 7.00909e-11, No Iterations 0
PIMPLE: Converged in 4 iterations
time step continuity errors : sum local = 3.50788e-12, global = 3.06911e-15, cumulative = -1.4535e-12
Courant Number mean: 0.000141832 max: 0.00467384
deltaT = 0.0138125
Mean velocity  = (6.6e-05 0 3.08527e-05)

ExecutionTime = 1.27 s  ClockTime = 6 s


Time = 0.0802925

PIMPLE: Iteration 1
DILUPBiCGStab:  Solving for c, Initial residual = 0.048918, Final residual = 2.16037e-07, No Iterations 1
GAMG:  Solving for p, Initial residual = 2.39296e-07, Final residual = 1.30504e-10, No Iterations 4
PIMPLE: Iteration 2
DILUPBiCGStab:  Solving for c, Initial residual = 2.94147e-05, Final residual = 1.44672e-10, No Iterations 1
GAMG:  Solving for p, Initial residual = 4.26749e-10, Final residual = 8.49906e-11, No Iterations 1
PIMPLE: Iteration 3
DILUPBiCGStab:  Solving for c, Initial residual = 1.31872e-07, Final residual = 6.44856e-13, No Iterations 1
GAMG:  Solving for p, Initial residual = 8.62021e-11, Final residual = 8.62021e-11, No Iterations 0
PIMPLE: Converged 
        Doing final iteration
PIMPLE: Iteration 4
DILUPBiCGStab:  Solving for c, Initial residual = 8.32164e-10, Final residual = 3.54874e-15, No Iterations 1
GAMG:  Solving for p, Initial residual = 8.61866e-11, Final residual = 8.61866e-11, No Iterations 0
PIMPLE: Converged in 4 iterations
time step continuity errors : sum local = 5.17609e-12, global = -1.48742e-14, cumulative = -1.46837e-12
Courant Number mean: 0.000170187 max: 0.00559363
deltaT = 0.0165732
Mean velocity  = (6.6e-05 0 3.08457e-05)

ExecutionTime = 1.34 s  ClockTime = 6 s


Time = 0.0968657

PIMPLE: Iteration 1
DILUPBiCGStab:  Solving for c, Initial residual = 0.0484762, Final residual = 3.08575e-07, No Iterations 1
GAMG:  Solving for p, Initial residual = 2.84372e-07, Final residual = 1.5673e-10, No Iterations 4
PIMPLE: Iteration 2
DILUPBiCGStab:  Solving for c, Initial residual = 3.49615e-05, Final residual = 2.45966e-10, No Iterations 1
GAMG:  Solving for p, Initial residual = 5.84574e-10, Final residual = 3.96477e-11, No Iterations 2
PIMPLE: Iteration 3
DILUPBiCGStab:  Solving for c, Initial residual = 1.85371e-07, Final residual = 1.2727e-12, No Iterations 1
GAMG:  Solving for p, Initial residual = 4.30931e-11, Final residual = 4.30931e-11, No Iterations 0
PIMPLE: Converged 
        Doing final iteration
PIMPLE: Iteration 4
DILUPBiCGStab:  Solving for c, Initial residual = 1.41928e-09, Final residual = 8.39986e-15, No Iterations 1
GAMG:  Solving for p, Initial residual = 4.30603e-11, Final residual = 4.30603e-11, No Iterations 0
PIMPLE: Converged in 4 iterations
time step continuity errors : sum local = 3.10292e-12, global = -6.13705e-13, cumulative = -2.08208e-12
Courant Number mean: 0.000204185 max: 0.00669028
deltaT = 0.0198852
Mean velocity  = (6.6e-05 0 3.08374e-05)

ExecutionTime = 1.41 s  ClockTime = 7 s


Time = 0.116751

PIMPLE: Iteration 1
DILUPBiCGStab:  Solving for c, Initial residual = 0.0480625, Final residual = 4.41036e-07, No Iterations 1
GAMG:  Solving for p, Initial residual = 3.37241e-07, Final residual = 1.83646e-10, No Iterations 4
PIMPLE: Iteration 2
DILUPBiCGStab:  Solving for c, Initial residual = 4.15782e-05, Final residual = 4.17978e-10, No Iterations 1
GAMG:  Solving for p, Initial residual = 8.01503e-10, Final residual = 4.75677e-11, No Iterations 2
PIMPLE: Iteration 3
DILUPBiCGStab:  Solving for c, Initial residual = 2.603e-07, Final residual = 2.49563e-12, No Iterations 1
GAMG:  Solving for p, Initial residual = 5.35282e-11, Final residual = 5.35282e-11, No Iterations 0
PIMPLE: Converged 
        Doing final iteration
PIMPLE: Iteration 4
DILUPBiCGStab:  Solving for c, Initial residual = 2.42576e-09, Final residual = 1.97834e-14, No Iterations 1
GAMG:  Solving for p, Initial residual = 5.34605e-11, Final residual = 5.34605e-11, No Iterations 0
PIMPLE: Converged in 4 iterations
time step continuity errors : sum local = 4.62223e-12, global = -7.26534e-13, cumulative = -2.80861e-12
Courant Number mean: 0.000244966 max: 0.00799691
deltaT = 0.0238613
Mean velocity  = (6.6e-05 0 3.08275e-05)

ExecutionTime = 1.49 s  ClockTime = 7 s


Time = 0.140612

PIMPLE: Iteration 1
DILUPBiCGStab:  Solving for c, Initial residual = 0.0476681, Final residual = 6.30815e-07, No Iterations 1
GAMG:  Solving for p, Initial residual = 3.99135e-07, Final residual = 2.20098e-10, No Iterations 4
PIMPLE: Iteration 2
DILUPBiCGStab:  Solving for c, Initial residual = 4.94816e-05, Final residual = 7.10079e-10, No Iterations 1
GAMG:  Solving for p, Initial residual = 1.1206e-09, Final residual = 5.92678e-11, No Iterations 2
PIMPLE: Iteration 3
DILUPBiCGStab:  Solving for c, Initial residual = 3.65292e-07, Final residual = 4.85974e-12, No Iterations 1
GAMG:  Solving for p, Initial residual = 6.95065e-11, Final residual = 6.95065e-11, No Iterations 0
PIMPLE: Converged 
        Doing final iteration
PIMPLE: Iteration 4
DILUPBiCGStab:  Solving for c, Initial residual = 4.15506e-09, Final residual = 4.63338e-14, No Iterations 1
GAMG:  Solving for p, Initial residual = 6.93666e-11, Final residual = 6.93666e-11, No Iterations 0
PIMPLE: Converged in 4 iterations
time step continuity errors : sum local = 7.1967e-12, global = -9.55638e-13, cumulative = -3.76425e-12
Courant Number mean: 0.000293912 max: 0.00955285
deltaT = 0.0286294
Mean velocity  = (6.6e-05 0 3.08158e-05)

ExecutionTime = 1.56 s  ClockTime = 7 s


Time = 0.169242

PIMPLE: Iteration 1
DILUPBiCGStab:  Solving for c, Initial residual = 0.0472701, Final residual = 9.02255e-07, No Iterations 1
GAMG:  Solving for p, Initial residual = 4.71062e-07, Final residual = 2.64077e-10, No Iterations 4
PIMPLE: Iteration 2
DILUPBiCGStab:  Solving for c, Initial residual = 5.95221e-05, Final residual = 1.23258e-09, No Iterations 1
GAMG:  Solving for p, Initial residual = 1.58788e-09, Final residual = 7.62544e-11, No Iterations 2
PIMPLE: Iteration 3
DILUPBiCGStab:  Solving for c, Initial residual = 5.13086e-07, Final residual = 9.40325e-12, No Iterations 1
GAMG:  Solving for p, Initial residual = 9.38196e-11, Final residual = 9.38196e-11, No Iterations 0
PIMPLE: Converged 
        Doing final iteration
PIMPLE: Iteration 4
DILUPBiCGStab:  Solving for c, Initial residual = 7.12861e-09, Final residual = 1.07614e-13, No Iterations 1
GAMG:  Solving for p, Initial residual = 9.35325e-11, Final residual = 9.35325e-11, No Iterations 0
PIMPLE: Converged in 4 iterations
time step continuity errors : sum local = 1.1643e-11, global = -1.20415e-12, cumulative = -4.9684e-12
Courant Number mean: 0.000352595 max: 0.0114009
deltaT = 0.0343533
Mean velocity  = (6.6e-05 0 3.08018e-05)

ExecutionTime = 1.63 s  ClockTime = 7 s


Time = 0.203595

PIMPLE: Iteration 1
DILUPBiCGStab:  Solving for c, Initial residual = 0.0468656, Final residual = 1.29078e-06, No Iterations 1
GAMG:  Solving for p, Initial residual = 5.54215e-07, Final residual = 3.17073e-10, No Iterations 4
PIMPLE: Iteration 2
DILUPBiCGStab:  Solving for c, Initial residual = 0.00061979, Final residual = 1.44163e-08, No Iterations 1
GAMG:  Solving for p, Initial residual = 1.41808e-08, Final residual = 2.8014e-11, No Iterations 5
PIMPLE: Iteration 3
DILUPBiCGStab:  Solving for c, Initial residual = 2.52193e-06, Final residual = 6.2907e-11, No Iterations 1
GAMG:  Solving for p, Initial residual = 9.41891e-11, Final residual = 9.41891e-11, No Iterations 0
PIMPLE: Converged 
        Doing final iteration
PIMPLE: Iteration 4
DILUPBiCGStab:  Solving for c, Initial residual = 1.65422e-08, Final residual = 3.57081e-13, No Iterations 1
GAMG:  Solving for p, Initial residual = 9.35124e-11, Final residual = 9.35124e-11, No Iterations 0
PIMPLE: Converged in 4 iterations
time step continuity errors : sum local = 1.39678e-11, global = -9.16528e-13, cumulative = -5.88493e-12
Courant Number mean: 0.000423019 max: 0.0135945
deltaT = 0.0412212
Mean velocity  = (6.6e-05 0 3.07849e-05)

ExecutionTime = 1.71 s  ClockTime = 7 s


Time = 0.244816

PIMPLE: Iteration 1
DILUPBiCGStab:  Solving for c, Initial residual = 0.0471401, Final residual = 1.86277e-06, No Iterations 1
GAMG:  Solving for p, Initial residual = 6.49557e-07, Final residual = 3.91981e-10, No Iterations 4
PIMPLE: Iteration 2
DILUPBiCGStab:  Solving for c, Initial residual = 8.87338e-05, Final residual = 3.7663e-09, No Iterations 1
GAMG:  Solving for p, Initial residual = 3.26972e-09, Final residual = 4.89941e-11, No Iterations 3
PIMPLE: Iteration 3
DILUPBiCGStab:  Solving for c, Initial residual = 1.00894e-06, Final residual = 3.42994e-11, No Iterations 1
GAMG:  Solving for p, Initial residual = 1.00827e-10, Final residual = 2.32797e-11, No Iterations 1
PIMPLE: Converged 
        Doing final iteration
PIMPLE: Iteration 4
DILUPBiCGStab:  Solving for c, Initial residual = 2.18125e-08, Final residual = 6.07682e-13, No Iterations 1
GAMG:  Solving for p, Initial residual = 2.43992e-11, Final residual = 2.43992e-11, No Iterations 0
PIMPLE: Converged in 4 iterations
time step continuity errors : sum local = 4.37305e-12, global = -1.48246e-13, cumulative = -6.03318e-12
Courant Number mean: 0.000507487 max: 0.0161919
deltaT = 0.0494572
Mean velocity  = (6.6e-05 0 3.07647e-05)

ExecutionTime = 1.78 s  ClockTime = 7 s


Time = 0.294273

PIMPLE: Iteration 1
DILUPBiCGStab:  Solving for c, Initial residual = 0.0466292, Final residual = 2.64267e-06, No Iterations 1
GAMG:  Solving for p, Initial residual = 7.57878e-07, Final residual = 4.72725e-10, No Iterations 4
PIMPLE: Iteration 2
DILUPBiCGStab:  Solving for c, Initial residual = 0.000636895, Final residual = 2.84777e-08, No Iterations 1
GAMG:  Solving for p, Initial residual = 4.90063e-08, Final residual = 3.52485e-11, No Iterations 5
PIMPLE: Iteration 3
DILUPBiCGStab:  Solving for c, Initial residual = 9.05081e-06, Final residual = 5.75258e-10, No Iterations 1
GAMG:  Solving for p, Initial residual = 6.80057e-10, Final residual = 3.22543e-11, No Iterations 1
PIMPLE: Iteration 4
DILUPBiCGStab:  Solving for c, Initial residual = 1.97911e-07, Final residual = 1.25149e-11, No Iterations 1
GAMG:  Solving for p, Initial residual = 4.39864e-11, Final residual = 4.39864e-11, No Iterations 0
PIMPLE: Converged 
        Doing final iteration
PIMPLE: Iteration 5
DILUPBiCGStab:  Solving for c, Initial residual = 3.61959e-09, Final residual = 2.12741e-13, No Iterations 1
GAMG:  Solving for p, Initial residual = 4.37697e-11, Final residual = 4.37697e-11, No Iterations 0
PIMPLE: Converged in 5 iterations
time step continuity errors : sum local = 9.41227e-12, global = 2.4194e-13, cumulative = -5.79124e-12
Courant Number mean: 0.000608733 max: 0.0192592
deltaT = 0.0593486
Mean velocity  = (6.6e-05 0 3.07393e-05)

ExecutionTime = 1.87 s  ClockTime = 7 s


Time = 0.353622

PIMPLE: Iteration 1
DILUPBiCGStab:  Solving for c, Initial residual = 0.0467225, Final residual = 3.80748e-06, No Iterations 1
GAMG:  Solving for p, Initial residual = 9.08706e-07, Final residual = 5.95925e-10, No Iterations 4
PIMPLE: Iteration 2
DILUPBiCGStab:  Solving for c, Initial residual = 0.000133184, Final residual = 1.19227e-08, No Iterations 1
GAMG:  Solving for p, Initial residual = 7.57437e-09, Final residual = 3.79671e-11, No Iterations 4
PIMPLE: Iteration 3
DILUPBiCGStab:  Solving for c, Initial residual = 1.765e-06, Final residual = 1.08114e-10, No Iterations 1
GAMG:  Solving for p, Initial residual = 1.7231e-10, Final residual = 2.81587e-11, No Iterations 1
PIMPLE: Converged 
        Doing final iteration
PIMPLE: Iteration 4
DILUPBiCGStab:  Solving for c, Initial residual = 6.06253e-08, Final residual = 2.9075e-12, No Iterations 1
GAMG:  Solving for p, Initial residual = 3.35398e-11, Final residual = 3.35398e-11, No Iterations 0
PIMPLE: Converged in 4 iterations
time step continuity errors : sum local = 8.65486e-12, global = -1.38205e-12, cumulative = -7.17329e-12
Courant Number mean: 0.000730273 max: 0.0228784
deltaT = 0.071176
Mean velocity  = (6.6e-05 0 3.07089e-05)

ExecutionTime = 1.95 s  ClockTime = 7 s


Time = 0.424798

PIMPLE: Iteration 1
DILUPBiCGStab:  Solving for c, Initial residual = 0.0460016, Final residual = 5.40114e-06, No Iterations 1
GAMG:  Solving for p, Initial residual = 1.06553e-06, Final residual = 7.20244e-10, No Iterations 4
PIMPLE: Iteration 2
DILUPBiCGStab:  Solving for c, Initial residual = 0.000160366, Final residual = 2.06776e-08, No Iterations 1
GAMG:  Solving for p, Initial residual = 1.06323e-08, Final residual = 4.81138e-11, No Iterations 4
PIMPLE: Iteration 3
DILUPBiCGStab:  Solving for c, Initial residual = 2.4925e-06, Final residual = 2.01471e-10, No Iterations 1
GAMG:  Solving for p, Initial residual = 2.75537e-10, Final residual = 4.02089e-11, No Iterations 1
PIMPLE: Converged 
        Doing final iteration
PIMPLE: Iteration 4
DILUPBiCGStab:  Solving for c, Initial residual = 9.9732e-08, Final residual = 5.92461e-12, No Iterations 1
GAMG:  Solving for p, Initial residual = 5.11755e-11, Final residual = 5.11755e-11, No Iterations 0
PIMPLE: Converged in 4 iterations
time step continuity errors : sum local = 1.58374e-11, global = -2.11908e-12, cumulative = -9.29237e-12
Courant Number mean: 0.000875515 max: 0.0271182
deltaT = 0.085399
Mean velocity  = (6.6e-05 0 3.06732e-05)

ExecutionTime = 2.03 s  ClockTime = 7 s


Time = 0.510197

PIMPLE: Iteration 1
DILUPBiCGStab:  Solving for c, Initial residual = 0.045205, Final residual = 7.67743e-06, No Iterations 1
GAMG:  Solving for p, Initial residual = 1.23431e-06, Final residual = 8.70077e-10, No Iterations 4
PIMPLE: Iteration 2
DILUPBiCGStab:  Solving for c, Initial residual = 0.000730197, Final residual = 9.59151e-08, No Iterations 1
GAMG:  Solving for p, Initial residual = 6.72897e-08, Final residual = 9.27084e-11, No Iterations 5
PIMPLE: Iteration 3
DILUPBiCGStab:  Solving for c, Initial residual = 1.4225e-05, Final residual = 1.97993e-09, No Iterations 1
GAMG:  Solving for p, Initial residual = 1.26918e-09, Final residual = 8.00545e-11, No Iterations 1
PIMPLE: Iteration 4
DILUPBiCGStab:  Solving for c, Initial residual = 3.10067e-07, Final residual = 3.33001e-11, No Iterations 1
GAMG:  Solving for p, Initial residual = 1.12368e-10, Final residual = 4.14553e-11, No Iterations 1
PIMPLE: Converged 
        Doing final iteration
PIMPLE: Iteration 5
DILUPBiCGStab:  Solving for c, Initial residual = 1.63511e-08, Final residual = 1.61042e-12, No Iterations 1
GAMG:  Solving for p, Initial residual = 4.29575e-11, Final residual = 4.29575e-11, No Iterations 0
PIMPLE: Converged in 5 iterations
time step continuity errors : sum local = 1.59507e-11, global = 1.52773e-12, cumulative = -7.76464e-12
Courant Number mean: 0.00105005 max: 0.0321021
deltaT = 0.102461
Mean velocity  = (6.6e-05 0 3.06302e-05)

ExecutionTime = 2.12 s  ClockTime = 7 s


Time = 0.612658

PIMPLE: Iteration 1
DILUPBiCGStab:  Solving for c, Initial residual = 0.0450249, Final residual = 1.09926e-05, No Iterations 1
GAMG:  Solving for p, Initial residual = 1.48836e-06, Final residual = 1.07767e-09, No Iterations 4
PIMPLE: Iteration 2
DILUPBiCGStab:  Solving for c, Initial residual = 0.00024036, Final residual = 6.34737e-08, No Iterations 1
GAMG:  Solving for p, Initial residual = 2.16646e-08, Final residual = 7.98173e-11, No Iterations 4
PIMPLE: Iteration 3
DILUPBiCGStab:  Solving for c, Initial residual = 5.13456e-06, Final residual = 7.56889e-10, No Iterations 1
GAMG:  Solving for p, Initial residual = 8.00361e-10, Final residual = 7.40604e-11, No Iterations 1
PIMPLE: Iteration 4
DILUPBiCGStab:  Solving for c, Initial residual = 2.83048e-07, Final residual = 2.72649e-11, No Iterations 1
GAMG:  Solving for p, Initial residual = 1.1991e-10, Final residual = 2.28593e-11, No Iterations 1
PIMPLE: Converged 
        Doing final iteration
PIMPLE: Iteration 5
DILUPBiCGStab:  Solving for c, Initial residual = 2.01282e-08, Final residual = 1.47721e-12, No Iterations 1
GAMG:  Solving for p, Initial residual = 2.6031e-11, Final residual = 2.6031e-11, No Iterations 0
PIMPLE: Converged in 5 iterations
time step continuity errors : sum local = 1.15968e-11, global = 4.31707e-13, cumulative = -7.33293e-12
Courant Number mean: 0.00125925 max: 0.0379296
deltaT = 0.122852
Mean velocity  = (6.6e-05 0 3.058e-05)

ExecutionTime = 2.21 s  ClockTime = 7 s


Time = 0.73551

PIMPLE: Iteration 1
DILUPBiCGStab:  Solving for c, Initial residual = 0.0440016, Final residual = 1.551e-05, No Iterations 1
GAMG:  Solving for p, Initial residual = 1.69027e-06, Final residual = 1.29628e-09, No Iterations 4
PIMPLE: Iteration 2
DILUPBiCGStab:  Solving for c, Initial residual = 0.00028413, Final residual = 1.06951e-07, No Iterations 1
GAMG:  Solving for p, Initial residual = 2.96244e-08, Final residual = 5.7117e-11, No Iterations 5
PIMPLE: Iteration 3
DILUPBiCGStab:  Solving for c, Initial residual = 7.32308e-06, Final residual = 1.53734e-09, No Iterations 1
GAMG:  Solving for p, Initial residual = 1.29696e-09, Final residual = 7.56982e-11, No Iterations 1
PIMPLE: Iteration 4
DILUPBiCGStab:  Solving for c, Initial residual = 4.65956e-07, Final residual = 5.81279e-11, No Iterations 1
GAMG:  Solving for p, Initial residual = 1.67078e-10, Final residual = 2.55577e-11, No Iterations 1
PIMPLE: Converged 
        Doing final iteration
PIMPLE: Iteration 5
DILUPBiCGStab:  Solving for c, Initial residual = 3.89442e-08, Final residual = 3.3598e-12, No Iterations 1
GAMG:  Solving for p, Initial residual = 3.34252e-11, Final residual = 3.34252e-11, No Iterations 0
PIMPLE: Converged in 5 iterations
time step continuity errors : sum local = 1.78543e-11, global = -6.27617e-13, cumulative = -7.96055e-12
Courant Number mean: 0.00150904 max: 0.0446991
deltaT = 0.147277
Mean velocity  = (6.6e-05 0 3.05225e-05)

ExecutionTime = 2.31 s  ClockTime = 7 s


Time = 0.882787

PIMPLE: Iteration 1
DILUPBiCGStab:  Solving for c, Initial residual = 0.0428523, Final residual = 2.17976e-05, No Iterations 1
GAMG:  Solving for p, Initial residual = 1.88888e-06, Final residual = 1.5548e-09, No Iterations 4
PIMPLE: Iteration 2
DILUPBiCGStab:  Solving for c, Initial residual = 0.00076834, Final residual = 3.03638e-07, No Iterations 1
GAMG:  Solving for p, Initial residual = 4.00108e-08, Final residual = 6.82139e-11, No Iterations 5
PIMPLE: Iteration 3
DILUPBiCGStab:  Solving for c, Initial residual = 1.07103e-05, Final residual = 3.36453e-09, No Iterations 1
GAMG:  Solving for p, Initial residual = 2.11157e-09, Final residual = 3.15481e-11, No Iterations 2
PIMPLE: Iteration 4
DILUPBiCGStab:  Solving for c, Initial residual = 7.63128e-07, Final residual = 1.27631e-10, No Iterations 1
GAMG:  Solving for p, Initial residual = 2.22293e-10, Final residual = 3.05564e-11, No Iterations 1
PIMPLE: Converged 
        Doing final iteration
PIMPLE: Iteration 5
DILUPBiCGStab:  Solving for c, Initial residual = 7.64524e-08, Final residual = 9.45758e-12, No Iterations 1
GAMG:  Solving for p, Initial residual = 4.97527e-11, Final residual = 4.97527e-11, No Iterations 0
PIMPLE: Converged in 5 iterations
time step continuity errors : sum local = 3.18599e-11, global = -3.434e-13, cumulative = -8.30394e-12
Courant Number mean: 0.00180794 max: 0.0525659
deltaT = 0.17668
Mean velocity  = (6.6e-05 0 3.04576e-05)

ExecutionTime = 2.41 s  ClockTime = 8 s


Time = 1.05947

PIMPLE: Iteration 1
DILUPBiCGStab:  Solving for c, Initial residual = 0.041238, Final residual = 3.01914e-05, No Iterations 1
GAMG:  Solving for p, Initial residual = 2.08237e-06, Final residual = 1.85888e-09, No Iterations 4
PIMPLE: Iteration 2
DILUPBiCGStab:  Solving for c, Initial residual = 0.000379876, Final residual = 2.86067e-07, No Iterations 1
GAMG:  Solving for p, Initial residual = 5.23226e-08, Final residual = 8.88733e-11, No Iterations 5
PIMPLE: Iteration 3
DILUPBiCGStab:  Solving for c, Initial residual = 1.4699e-05, Final residual = 6.86359e-09, No Iterations 1
GAMG:  Solving for p, Initial residual = 3.41766e-09, Final residual = 4.54736e-11, No Iterations 2
PIMPLE: Iteration 4
DILUPBiCGStab:  Solving for c, Initial residual = 1.22626e-06, Final residual = 2.87315e-10, No Iterations 1
GAMG:  Solving for p, Initial residual = 4.0589e-10, Final residual = 5.24947e-11, No Iterations 1
PIMPLE: Converged 
        Doing final iteration
PIMPLE: Iteration 5
DILUPBiCGStab:  Solving for c, Initial residual = 1.44064e-07, Final residual = 2.27055e-11, No Iterations 1
GAMG:  Solving for p, Initial residual = 9.53187e-11, Final residual = 9.53187e-11, No Iterations 0
PIMPLE: Converged in 5 iterations
time step continuity errors : sum local = 7.32245e-11, global = 1.04308e-13, cumulative = -8.19964e-12
Courant Number mean: 0.00216737 max: 0.0617438
deltaT = 0.211864
Mean velocity  = (6.6e-05 0 3.03853e-05)

ExecutionTime = 2.52 s  ClockTime = 8 s


Time = 1.27133

PIMPLE: Iteration 1
DILUPBiCGStab:  Solving for c, Initial residual = 0.0400629, Final residual = 4.04168e-08, No Iterations 1
GAMG:  Solving for p, Initial residual = 2.26652e-06, Final residual = 2.22169e-09, No Iterations 4
PIMPLE: Iteration 2
DILUPBiCGStab:  Solving for c, Initial residual = 0.000979791, Final residual = 9.4049e-07, No Iterations 1
GAMG:  Solving for p, Initial residual = 8.28083e-08, Final residual = 7.64481e-11, No Iterations 6
PIMPLE: Iteration 3
DILUPBiCGStab:  Solving for c, Initial residual = 2.63082e-05, Final residual = 1.92411e-08, No Iterations 1
GAMG:  Solving for p, Initial residual = 5.47648e-09, Final residual = 4.97972e-11, No Iterations 2
PIMPLE: Iteration 4
DILUPBiCGStab:  Solving for c, Initial residual = 2.05523e-06, Final residual = 7.55152e-10, No Iterations 1
GAMG:  Solving for p, Initial residual = 7.18947e-10, Final residual = 5.44424e-11, No Iterations 1
PIMPLE: Converged 
        Doing final iteration
PIMPLE: Iteration 5
DILUPBiCGStab:  Solving for c, Initial residual = 2.72088e-07, Final residual = 6.08261e-11, No Iterations 1
GAMG:  Solving for p, Initial residual = 1.47617e-10, Final residual = 1.93518e-11, No Iterations 1
PIMPLE: Converged in 5 iterations
time step continuity errors : sum local = 1.78266e-11, global = -3.41565e-12, cumulative = -1.16153e-11
Courant Number mean: 0.00259695 max: 0.0723707
deltaT = 0.253801
Mean velocity  = (6.6e-05 0 3.03048e-05)

ExecutionTime = 2.62 s  ClockTime = 8 s


Time = 1.52513

PIMPLE: Iteration 1
DILUPBiCGStab:  Solving for c, Initial residual = 0.0394524, Final residual = 7.648e-08, No Iterations 1
GAMG:  Solving for p, Initial residual = 2.421e-06, Final residual = 1.13878e-09, No Iterations 5
PIMPLE: Iteration 2
DILUPBiCGStab:  Solving for c, Initial residual = 0.000457256, Final residual = 8.86674e-10, No Iterations 1
GAMG:  Solving for p, Initial residual = 8.16138e-08, Final residual = 5.54483e-11, No Iterations 6
PIMPLE: Iteration 3
DILUPBiCGStab:  Solving for c, Initial residual = 2.76578e-05, Final residual = 2.61853e-08, No Iterations 1
GAMG:  Solving for p, Initial residual = 7.98978e-09, Final residual = 5.36114e-11, No Iterations 2
PIMPLE: Iteration 4
DILUPBiCGStab:  Solving for c, Initial residual = 3.19776e-06, Final residual = 1.66661e-09, No Iterations 1
GAMG:  Solving for p, Initial residual = 1.25196e-09, Final residual = 7.30412e-11, No Iterations 1
PIMPLE: Converged 
        Doing final iteration
PIMPLE: Iteration 5
DILUPBiCGStab:  Solving for c, Initial residual = 5.00232e-07, Final residual = 1.62226e-10, No Iterations 1
GAMG:  Solving for p, Initial residual = 2.70682e-10, Final residual = 2.68564e-11, No Iterations 1
PIMPLE: Converged in 5 iterations
time step continuity errors : sum local = 2.96371e-11, global = -6.32623e-12, cumulative = -1.79415e-11
Courant Number mean: 0.00310831 max: 0.0846224
deltaT = 0.303935
Mean velocity  = (6.6e-05 0 3.02171e-05)

ExecutionTime = 2.72 s  ClockTime = 8 s


Time = 1.82907

PIMPLE: Iteration 1
DILUPBiCGStab:  Solving for c, Initial residual = 0.0379903, Final residual = 1.3784e-07, No Iterations 1
GAMG:  Solving for p, Initial residual = 2.57376e-06, Final residual = 1.35616e-09, No Iterations 5
PIMPLE: Iteration 2
DILUPBiCGStab:  Solving for c, Initial residual = 0.00048751, Final residual = 1.83829e-09, No Iterations 1
GAMG:  Solving for p, Initial residual = 9.84679e-08, Final residual = 7.42122e-11, No Iterations 6
PIMPLE: Iteration 3
DILUPBiCGStab:  Solving for c, Initial residual = 3.55523e-05, Final residual = 8.20437e-11, No Iterations 1
GAMG:  Solving for p, Initial residual = 1.16883e-08, Final residual = 7.4257e-11, No Iterations 2
PIMPLE: Iteration 4
DILUPBiCGStab:  Solving for c, Initial residual = 4.83361e-06, Final residual = 3.5646e-09, No Iterations 1
GAMG:  Solving for p, Initial residual = 2.13291e-09, Final residual = 2.85137e-11, No Iterations 2
PIMPLE: Iteration 5
DILUPBiCGStab:  Solving for c, Initial residual = 8.89721e-07, Final residual = 4.19682e-10, No Iterations 1
GAMG:  Solving for p, Initial residual = 4.4963e-10, Final residual = 4.50097e-11, No Iterations 1
PIMPLE: Converged 
        Doing final iteration
PIMPLE: Iteration 6
DILUPBiCGStab:  Solving for c, Initial residual = 1.83356e-07, Final residual = 6.9119e-11, No Iterations 1
GAMG:  Solving for p, Initial residual = 1.30982e-10, Final residual = 1.49917e-11, No Iterations 1
PIMPLE: Converged in 6 iterations
time step continuity errors : sum local = 1.98121e-11, global = 1.25916e-12, cumulative = -1.66824e-11
Courant Number mean: 0.00371878 max: 0.0988105
deltaT = 0.363596
Mean velocity  = (6.6e-05 0 3.01225e-05)

ExecutionTime = 2.84 s  ClockTime = 8 s


Time = 2.19266

PIMPLE: Iteration 1
DILUPBiCGStab:  Solving for c, Initial residual = 0.0364393, Final residual = 2.41099e-07, No Iterations 1
GAMG:  Solving for p, Initial residual = 2.72136e-06, Final residual = 1.60514e-09, No Iterations 5
PIMPLE: Iteration 2
DILUPBiCGStab:  Solving for c, Initial residual = 0.00149242, Final residual = 1.03009e-08, No Iterations 1
GAMG:  Solving for p, Initial residual = 2.11268e-07, Final residual = 1.166e-10, No Iterations 6
PIMPLE: Iteration 3
DILUPBiCGStab:  Solving for c, Initial residual = 0.000622515, Final residual = 2.98989e-09, No Iterations 1
GAMG:  Solving for p, Initial residual = 1.10804e-07, Final residual = 9.10293e-11, No Iterations 4
PIMPLE: Iteration 4
DILUPBiCGStab:  Solving for c, Initial residual = 0.000625294, Final residual = 2.71493e-09, No Iterations 1
GAMG:  Solving for p, Initial residual = 9.80803e-08, Final residual = 7.33696e-11, No Iterations 4
PIMPLE: Iteration 5
DILUPBiCGStab:  Solving for c, Initial residual = 0.000579003, Final residual = 2.78888e-09, No Iterations 1
GAMG:  Solving for p, Initial residual = 9.55702e-08, Final residual = 7.25913e-11, No Iterations 4
PIMPLE: Iteration 6
DILUPBiCGStab:  Solving for c, Initial residual = 0.000619124, Final residual = 2.70371e-09, No Iterations 1
GAMG:  Solving for p, Initial residual = 9.49767e-08, Final residual = 6.99246e-11, No Iterations 4
PIMPLE: Iteration 7
DILUPBiCGStab:  Solving for c, Initial residual = 0.000577651, Final residual = 2.78757e-09, No Iterations 1
GAMG:  Solving for p, Initial residual = 9.48252e-08, Final residual = 6.81987e-11, No Iterations 4
PIMPLE: Iteration 8
DILUPBiCGStab:  Solving for c, Initial residual = 0.000618792, Final residual = 2.70344e-09, No Iterations 1
GAMG:  Solving for p, Initial residual = 9.47855e-08, Final residual = 6.79747e-11, No Iterations 4
PIMPLE: Iteration 9
DILUPBiCGStab:  Solving for c, Initial residual = 0.000577567, Final residual = 2.7875e-09, No Iterations 1
GAMG:  Solving for p, Initial residual = 9.47755e-08, Final residual = 6.65813e-11, No Iterations 4
PIMPLE: Iteration 10
DILUPBiCGStab:  Solving for c, Initial residual = 0.00061877, Final residual = 2.70342e-09, No Iterations 1
GAMG:  Solving for p, Initial residual = 9.47716e-08, Final residual = 6.68677e-11, No Iterations 4
PIMPLE: Iteration 11
DILUPBiCGStab:  Solving for c, Initial residual = 0.000577561, Final residual = 2.7875e-09, No Iterations 1
GAMG:  Solving for p, Initial residual = 9.47712e-08, Final residual = 6.59382e-11, No Iterations 4
PIMPLE: Iteration 12
DILUPBiCGStab:  Solving for c, Initial residual = 0.000618769, Final residual = 2.70342e-09, No Iterations 1
GAMG:  Solving for p, Initial residual = 9.47701e-08, Final residual = 6.62483e-11, No Iterations 4
PIMPLE: Iteration 13
DILUPBiCGStab:  Solving for c, Initial residual = 0.000577561, Final residual = 2.7875e-09, No Iterations 1
GAMG:  Solving for p, Initial residual = 9.47704e-08, Final residual = 6.56802e-11, No Iterations 4
PIMPLE: Iteration 14
DILUPBiCGStab:  Solving for c, Initial residual = 0.000618769, Final residual = 2.70342e-09, No Iterations 1
GAMG:  Solving for p, Initial residual = 9.47698e-08, Final residual = 6.59085e-11, No Iterations 4
PIMPLE: Iteration 15
DILUPBiCGStab:  Solving for c, Initial residual = 0.000577561, Final residual = 2.7875e-09, No Iterations 1
GAMG:  Solving for p, Initial residual = 9.477e-08, Final residual = 6.55804e-11, No Iterations 4
PIMPLE: Iteration 16
DILUPBiCGStab:  Solving for c, Initial residual = 0.000618769, Final residual = 2.70342e-09, No Iterations 1
GAMG:  Solving for p, Initial residual = 9.47697e-08, Final residual = 6.57263e-11, No Iterations 4
PIMPLE: Iteration 17
DILUPBiCGStab:  Solving for c, Initial residual = 0.000577561, Final residual = 2.7875e-09, No Iterations 1
GAMG:  Solving for p, Initial residual = 9.47699e-08, Final residual = 6.55442e-11, No Iterations 4
PIMPLE: Iteration 18
DILUPBiCGStab:  Solving for c, Initial residual = 0.000618769, Final residual = 2.70342e-09, No Iterations 1
GAMG:  Solving for p, Initial residual = 9.47697e-08, Final residual = 6.56311e-11, No Iterations 4
PIMPLE: Iteration 19
DILUPBiCGStab:  Solving for c, Initial residual = 0.000577561, Final residual = 2.7875e-09, No Iterations 1
GAMG:  Solving for p, Initial residual = 9.47698e-08, Final residual = 6.55321e-11, No Iterations 4
PIMPLE: Iteration 20
DILUPBiCGStab:  Solving for c, Initial residual = 0.000618769, Final residual = 2.70342e-09, No Iterations 1
GAMG:  Solving for p, Initial residual = 9.47697e-08, Final residual = 6.55834e-11, No Iterations 4
PIMPLE: Iteration 21
DILUPBiCGStab:  Solving for c, Initial residual = 0.000577561, Final residual = 2.7875e-09, No Iterations 1
GAMG:  Solving for p, Initial residual = 9.47697e-08, Final residual = 6.553e-11, No Iterations 4
PIMPLE: Iteration 22
DILUPBiCGStab:  Solving for c, Initial residual = 0.000618769, Final residual = 2.70342e-09, No Iterations 1
GAMG:  Solving for p, Initial residual = 9.47697e-08, Final residual = 6.556e-11, No Iterations 4
PIMPLE: Iteration 23
DILUPBiCGStab:  Solving for c, Initial residual = 0.000577561, Final residual = 2.7875e-09, No Iterations 1
GAMG:  Solving for p, Initial residual = 9.47697e-08, Final residual = 6.55316e-11, No Iterations 4
PIMPLE: Iteration 24
DILUPBiCGStab:  Solving for c, Initial residual = 0.000618769, Final residual = 2.70342e-09, No Iterations 1
GAMG:  Solving for p, Initial residual = 9.47697e-08, Final residual = 6.55487e-11, No Iterations 4
PIMPLE: Iteration 25
DILUPBiCGStab:  Solving for c, Initial residual = 0.000577561, Final residual = 2.7875e-09, No Iterations 1
GAMG:  Solving for p, Initial residual = 9.47697e-08, Final residual = 6.55334e-11, No Iterations 4
PIMPLE: Iteration 26
DILUPBiCGStab:  Solving for c, Initial residual = 0.000618769, Final residual = 2.70342e-09, No Iterations 1
GAMG:  Solving for p, Initial residual = 9.47697e-08, Final residual = 6.55434e-11, No Iterations 4
PIMPLE: Iteration 27
DILUPBiCGStab:  Solving for c, Initial residual = 0.000577561, Final residual = 2.7875e-09, No Iterations 1
GAMG:  Solving for p, Initial residual = 9.47697e-08, Final residual = 6.55346e-11, No Iterations 4
PIMPLE: Iteration 28
DILUPBiCGStab:  Solving for c, Initial residual = 0.000618769, Final residual = 2.70342e-09, No Iterations 1
GAMG:  Solving for p, Initial residual = 9.47697e-08, Final residual = 6.55408e-11, No Iterations 4
PIMPLE: Iteration 29
DILUPBiCGStab:  Solving for c, Initial residual = 0.000577561, Final residual = 2.7875e-09, No Iterations 1
GAMG:  Solving for p, Initial residual = 9.47697e-08, Final residual = 6.55358e-11, No Iterations 4
PIMPLE: Iteration 30
DILUPBiCGStab:  Solving for c, Initial residual = 0.000618769, Final residual = 2.70342e-09, No Iterations 1
GAMG:  Solving for p, Initial residual = 9.47697e-08, Final residual = 6.55392e-11, No Iterations 4
PIMPLE: Iteration 31
DILUPBiCGStab:  Solving for c, Initial residual = 0.000577561, Final residual = 2.7875e-09, No Iterations 1
GAMG:  Solving for p, Initial residual = 9.47697e-08, Final residual = 6.55367e-11, No Iterations 4
PIMPLE: Iteration 32
DILUPBiCGStab:  Solving for c, Initial residual = 0.000618769, Final residual = 2.70342e-09, No Iterations 1
GAMG:  Solving for p, Initial residual = 9.47697e-08, Final residual = 6.55386e-11, No Iterations 4
PIMPLE: Iteration 33
DILUPBiCGStab:  Solving for c, Initial residual = 0.000577561, Final residual = 2.7875e-09, No Iterations 1
GAMG:  Solving for p, Initial residual = 9.47697e-08, Final residual = 6.55371e-11, No Iterations 4
PIMPLE: Iteration 34
DILUPBiCGStab:  Solving for c, Initial residual = 0.000618769, Final residual = 2.70342e-09, No Iterations 1
GAMG:  Solving for p, Initial residual = 9.47697e-08, Final residual = 6.55385e-11, No Iterations 4
PIMPLE: Iteration 35
DILUPBiCGStab:  Solving for c, Initial residual = 0.000577561, Final residual = 2.7875e-09, No Iterations 1
GAMG:  Solving for p, Initial residual = 9.47697e-08, Final residual = 6.55375e-11, No Iterations 4
PIMPLE: Iteration 36
DILUPBiCGStab:  Solving for c, Initial residual = 0.000618769, Final residual = 2.70342e-09, No Iterations 1
GAMG:  Solving for p, Initial residual = 9.47697e-08, Final residual = 6.55382e-11, No Iterations 4
PIMPLE: Iteration 37
DILUPBiCGStab:  Solving for c, Initial residual = 0.000577561, Final residual = 2.7875e-09, No Iterations 1
GAMG:  Solving for p, Initial residual = 9.47697e-08, Final residual = 6.55377e-11, No Iterations 4
PIMPLE: Iteration 38
DILUPBiCGStab:  Solving for c, Initial residual = 0.000618769, Final residual = 2.70342e-09, No Iterations 1
GAMG:  Solving for p, Initial residual = 9.47697e-08, Final residual = 6.5538e-11, No Iterations 4
PIMPLE: Iteration 39
DILUPBiCGStab:  Solving for c, Initial residual = 0.000577561, Final residual = 2.7875e-09, No Iterations 1
GAMG:  Solving for p, Initial residual = 9.47697e-08, Final residual = 6.55376e-11, No Iterations 4
PIMPLE: Iteration 40
DILUPBiCGStab:  Solving for c, Initial residual = 0.000618769, Final residual = 2.70342e-09, No Iterations 1
GAMG:  Solving for p, Initial residual = 9.47697e-08, Final residual = 6.55378e-11, No Iterations 4
PIMPLE: Iteration 41
DILUPBiCGStab:  Solving for c, Initial residual = 0.000577561, Final residual = 2.7875e-09, No Iterations 1
GAMG:  Solving for p, Initial residual = 9.47697e-08, Final residual = 6.5538e-11, No Iterations 4
PIMPLE: Iteration 42
DILUPBiCGStab:  Solving for c, Initial residual = 0.000618769, Final residual = 2.70342e-09, No Iterations 1
GAMG:  Solving for p, Initial residual = 9.47697e-08, Final residual = 6.55382e-11, No Iterations 4
PIMPLE: Iteration 43
DILUPBiCGStab:  Solving for c, Initial residual = 0.000577561, Final residual = 2.7875e-09, No Iterations 1
GAMG:  Solving for p, Initial residual = 9.47697e-08, Final residual = 6.55379e-11, No Iterations 4
PIMPLE: Iteration 44
DILUPBiCGStab:  Solving for c, Initial residual = 0.000618769, Final residual = 2.70342e-09, No Iterations 1
GAMG:  Solving for p, Initial residual = 9.47697e-08, Final residual = 6.55378e-11, No Iterations 4
PIMPLE: Iteration 45
DILUPBiCGStab:  Solving for c, Initial residual = 0.000577561, Final residual = 2.7875e-09, No Iterations 1
GAMG:  Solving for p, Initial residual = 9.47697e-08, Final residual = 6.55377e-11, No Iterations 4
PIMPLE: Iteration 46
DILUPBiCGStab:  Solving for c, Initial residual = 0.000618769, Final residual = 2.70342e-09, No Iterations 1
GAMG:  Solving for p, Initial residual = 9.47697e-08, Final residual = 6.55378e-11, No Iterations 4
PIMPLE: Iteration 47
DILUPBiCGStab:  Solving for c, Initial residual = 0.000577561, Final residual = 2.7875e-09, No Iterations 1
GAMG:  Solving for p, Initial residual = 9.47697e-08, Final residual = 6.55378e-11, No Iterations 4
PIMPLE: Iteration 48
DILUPBiCGStab:  Solving for c, Initial residual = 0.000618769, Final residual = 2.70342e-09, No Iterations 1
GAMG:  Solving for p, Initial residual = 9.47697e-08, Final residual = 6.55377e-11, No Iterations 4
PIMPLE: Iteration 49
DILUPBiCGStab:  Solving for c, Initial residual = 0.000577561, Final residual = 2.7875e-09, No Iterations 1
GAMG:  Solving for p, Initial residual = 9.47697e-08, Final residual = 6.55379e-11, No Iterations 4
PIMPLE: Iteration 50
DILUPBiCGStab:  Solving for c, Initial residual = 0.000618769, Final residual = 2.70342e-09, No Iterations 1
GAMG:  Solving for p, Initial residual = 9.47697e-08, Final residual = 6.55378e-11, No Iterations 4
PIMPLE: Iteration 51
DILUPBiCGStab:  Solving for c, Initial residual = 0.000577561, Final residual = 2.7875e-09, No Iterations 1
GAMG:  Solving for p, Initial residual = 9.47697e-08, Final residual = 6.5538e-11, No Iterations 4
PIMPLE: Iteration 52
DILUPBiCGStab:  Solving for c, Initial residual = 0.000618769, Final residual = 2.70342e-09, No Iterations 1
GAMG:  Solving for p, Initial residual = 9.47697e-08, Final residual = 6.5538e-11, No Iterations 4
PIMPLE: Iteration 53
DILUPBiCGStab:  Solving for c, Initial residual = 0.000577561, Final residual = 2.7875e-09, No Iterations 1
GAMG:  Solving for p, Initial residual = 9.47697e-08, Final residual = 6.55375e-11, No Iterations 4
PIMPLE: Iteration 54
DILUPBiCGStab:  Solving for c, Initial residual = 0.000618769, Final residual = 2.70342e-09, No Iterations 1
GAMG:  Solving for p, Initial residual = 9.47697e-08, Final residual = 6.55378e-11, No Iterations 4
PIMPLE: Iteration 55
DILUPBiCGStab:  Solving for c, Initial residual = 0.000577561, Final residual = 2.7875e-09, No Iterations 1
GAMG:  Solving for p, Initial residual = 9.47697e-08, Final residual = 6.5538e-11, No Iterations 4
PIMPLE: Iteration 56
DILUPBiCGStab:  Solving for c, Initial residual = 0.000618769, Final residual = 2.70342e-09, No Iterations 1
GAMG:  Solving for p, Initial residual = 9.47697e-08, Final residual = 6.55378e-11, No Iterations 4
PIMPLE: Iteration 57
DILUPBiCGStab:  Solving for c, Initial residual = 0.000577561, Final residual = 2.7875e-09, No Iterations 1
GAMG:  Solving for p, Initial residual = 9.47697e-08, Final residual = 6.55378e-11, No Iterations 4
PIMPLE: Iteration 58
DILUPBiCGStab:  Solving for c, Initial residual = 0.000618769, Final residual = 2.70342e-09, No Iterations 1
GAMG:  Solving for p, Initial residual = 9.47697e-08, Final residual = 6.55379e-11, No Iterations 4
PIMPLE: Iteration 59
DILUPBiCGStab:  Solving for c, Initial residual = 0.000577561, Final residual = 2.7875e-09, No Iterations 1
GAMG:  Solving for p, Initial residual = 9.47697e-08, Final residual = 6.55379e-11, No Iterations 4
PIMPLE: Iteration 60
DILUPBiCGStab:  Solving for c, Initial residual = 0.000618769, Final residual = 2.70342e-09, No Iterations 1
GAMG:  Solving for p, Initial residual = 9.47697e-08, Final residual = 6.55376e-11, No Iterations 4
PIMPLE: Iteration 61
DILUPBiCGStab:  Solving for c, Initial residual = 0.000577561, Final residual = 2.7875e-09, No Iterations 1
GAMG:  Solving for p, Initial residual = 9.47697e-08, Final residual = 6.55378e-11, No Iterations 4
PIMPLE: Iteration 62
DILUPBiCGStab:  Solving for c, Initial residual = 0.000618769, Final residual = 2.70342e-09, No Iterations 1
GAMG:  Solving for p, Initial residual = 9.47697e-08, Final residual = 6.55378e-11, No Iterations 4
PIMPLE: Iteration 63
DILUPBiCGStab:  Solving for c, Initial residual = 0.000577561, Final residual = 2.7875e-09, No Iterations 1
GAMG:  Solving for p, Initial residual = 9.47697e-08, Final residual = 6.55381e-11, No Iterations 4
PIMPLE: Iteration 64
DILUPBiCGStab:  Solving for c, Initial residual = 0.000618769, Final residual = 2.70342e-09, No Iterations 1
GAMG:  Solving for p, Initial residual = 9.47697e-08, Final residual = 6.55378e-11, No Iterations 4
PIMPLE: Iteration 65
DILUPBiCGStab:  Solving for c, Initial residual = 0.000577561, Final residual = 2.7875e-09, No Iterations 1
GAMG:  Solving for p, Initial residual = 9.47697e-08, Final residual = 6.55376e-11, No Iterations 4
PIMPLE: Iteration 66
DILUPBiCGStab:  Solving for c, Initial residual = 0.000618769, Final residual = 2.70342e-09, No Iterations 1
GAMG:  Solving for p, Initial residual = 9.47697e-08, Final residual = 6.55379e-11, No Iterations 4
PIMPLE: Iteration 67
DILUPBiCGStab:  Solving for c, Initial residual = 0.000577561, Final residual = 2.7875e-09, No Iterations 1
GAMG:  Solving for p, Initial residual = 9.47697e-08, Final residual = 6.55378e-11, No Iterations 4
PIMPLE: Iteration 68
DILUPBiCGStab:  Solving for c, Initial residual = 0.000618769, Final residual = 2.70342e-09, No Iterations 1
GAMG:  Solving for p, Initial residual = 9.47697e-08, Final residual = 6.55381e-11, No Iterations 4
PIMPLE: Iteration 69
DILUPBiCGStab:  Solving for c, Initial residual = 0.000577561, Final residual = 2.7875e-09, No Iterations 1
GAMG:  Solving for p, Initial residual = 9.47697e-08, Final residual = 6.55376e-11, No Iterations 4
PIMPLE: Iteration 70
DILUPBiCGStab:  Solving for c, Initial residual = 0.000618769, Final residual = 2.70342e-09, No Iterations 1
GAMG:  Solving for p, Initial residual = 9.47697e-08, Final residual = 6.5538e-11, No Iterations 4
PIMPLE: Iteration 71
DILUPBiCGStab:  Solving for c, Initial residual = 0.000577561, Final residual = 2.7875e-09, No Iterations 1
GAMG:  Solving for p, Initial residual = 9.47697e-08, Final residual = 6.55376e-11, No Iterations 4
PIMPLE: Iteration 72
DILUPBiCGStab:  Solving for c, Initial residual = 0.000618769, Final residual = 2.70342e-09, No Iterations 1
GAMG:  Solving for p, Initial residual = 9.47697e-08, Final residual = 6.55376e-11, No Iterations 4
PIMPLE: Iteration 73
DILUPBiCGStab:  Solving for c, Initial residual = 0.000577561, Final residual = 2.7875e-09, No Iterations 1
GAMG:  Solving for p, Initial residual = 9.47697e-08, Final residual = 6.55379e-11, No Iterations 4
PIMPLE: Iteration 74
DILUPBiCGStab:  Solving for c, Initial residual = 0.000618769, Final residual = 2.70342e-09, No Iterations 1
GAMG:  Solving for p, Initial residual = 9.47697e-08, Final residual = 6.55379e-11, No Iterations 4
PIMPLE: Iteration 75
DILUPBiCGStab:  Solving for c, Initial residual = 0.000577561, Final residual = 2.7875e-09, No Iterations 1
GAMG:  Solving for p, Initial residual = 9.47697e-08, Final residual = 6.55378e-11, No Iterations 4
PIMPLE: Iteration 76
DILUPBiCGStab:  Solving for c, Initial residual = 0.000618769, Final residual = 2.70342e-09, No Iterations 1
GAMG:  Solving for p, Initial residual = 9.47697e-08, Final residual = 6.55376e-11, No Iterations 4
PIMPLE: Iteration 77
DILUPBiCGStab:  Solving for c, Initial residual = 0.000577561, Final residual = 2.7875e-09, No Iterations 1
GAMG:  Solving for p, Initial residual = 9.47697e-08, Final residual = 6.55381e-11, No Iterations 4
PIMPLE: Iteration 78
DILUPBiCGStab:  Solving for c, Initial residual = 0.000618769, Final residual = 2.70342e-09, No Iterations 1
GAMG:  Solving for p, Initial residual = 9.47697e-08, Final residual = 6.55377e-11, No Iterations 4
PIMPLE: Iteration 79
DILUPBiCGStab:  Solving for c, Initial residual = 0.000577561, Final residual = 2.7875e-09, No Iterations 1
GAMG:  Solving for p, Initial residual = 9.47697e-08, Final residual = 6.5538e-11, No Iterations 4
PIMPLE: Iteration 80
DILUPBiCGStab:  Solving for c, Initial residual = 0.000618769, Final residual = 2.70342e-09, No Iterations 1
GAMG:  Solving for p, Initial residual = 9.47697e-08, Final residual = 6.55376e-11, No Iterations 4
PIMPLE: Iteration 81
DILUPBiCGStab:  Solving for c, Initial residual = 0.000577561, Final residual = 2.7875e-09, No Iterations 1
GAMG:  Solving for p, Initial residual = 9.47697e-08, Final residual = 6.55378e-11, No Iterations 4
PIMPLE: Iteration 82
DILUPBiCGStab:  Solving for c, Initial residual = 0.000618769, Final residual = 2.70342e-09, No Iterations 1
GAMG:  Solving for p, Initial residual = 9.47697e-08, Final residual = 6.55378e-11, No Iterations 4
PIMPLE: Iteration 83
DILUPBiCGStab:  Solving for c, Initial residual = 0.000577561, Final residual = 2.7875e-09, No Iterations 1
GAMG:  Solving for p, Initial residual = 9.47697e-08, Final residual = 6.55378e-11, No Iterations 4
PIMPLE: Iteration 84
DILUPBiCGStab:  Solving for c, Initial residual = 0.000618769, Final residual = 2.70342e-09, No Iterations 1
GAMG:  Solving for p, Initial residual = 9.47697e-08, Final residual = 6.55378e-11, No Iterations 4
PIMPLE: Iteration 85
DILUPBiCGStab:  Solving for c, Initial residual = 0.000577561, Final residual = 2.7875e-09, No Iterations 1
GAMG:  Solving for p, Initial residual = 9.47697e-08, Final residual = 6.55378e-11, No Iterations 4
PIMPLE: Iteration 86
DILUPBiCGStab:  Solving for c, Initial residual = 0.000618769, Final residual = 2.70342e-09, No Iterations 1
GAMG:  Solving for p, Initial residual = 9.47697e-08, Final residual = 6.55379e-11, No Iterations 4
PIMPLE: Iteration 87
DILUPBiCGStab:  Solving for c, Initial residual = 0.000577561, Final residual = 2.7875e-09, No Iterations 1
GAMG:  Solving for p, Initial residual = 9.47697e-08, Final residual = 6.5538e-11, No Iterations 4
PIMPLE: Iteration 88
DILUPBiCGStab:  Solving for c, Initial residual = 0.000618769, Final residual = 2.70342e-09, No Iterations 1
GAMG:  Solving for p, Initial residual = 9.47697e-08, Final residual = 6.55376e-11, No Iterations 4
PIMPLE: Iteration 89
DILUPBiCGStab:  Solving for c, Initial residual = 0.000577561, Final residual = 2.7875e-09, No Iterations 1
GAMG:  Solving for p, Initial residual = 9.47697e-08, Final residual = 6.55376e-11, No Iterations 4
PIMPLE: Iteration 90
DILUPBiCGStab:  Solving for c, Initial residual = 0.000618769, Final residual = 2.70342e-09, No Iterations 1
GAMG:  Solving for p, Initial residual = 9.47697e-08, Final residual = 6.55379e-11, No Iterations 4
PIMPLE: Iteration 91
DILUPBiCGStab:  Solving for c, Initial residual = 0.000577561, Final residual = 2.7875e-09, No Iterations 1
GAMG:  Solving for p, Initial residual = 9.47697e-08, Final residual = 6.55378e-11, No Iterations 4
PIMPLE: Iteration 92
DILUPBiCGStab:  Solving for c, Initial residual = 0.000618769, Final residual = 2.70342e-09, No Iterations 1
GAMG:  Solving for p, Initial residual = 9.47697e-08, Final residual = 6.55379e-11, No Iterations 4
PIMPLE: Iteration 93
DILUPBiCGStab:  Solving for c, Initial residual = 0.000577561, Final residual = 2.7875e-09, No Iterations 1
GAMG:  Solving for p, Initial residual = 9.47697e-08, Final residual = 6.55379e-11, No Iterations 4
PIMPLE: Iteration 94
DILUPBiCGStab:  Solving for c, Initial residual = 0.000618769, Final residual = 2.70342e-09, No Iterations 1
GAMG:  Solving for p, Initial residual = 9.47697e-08, Final residual = 6.55376e-11, No Iterations 4
PIMPLE: Iteration 95
DILUPBiCGStab:  Solving for c, Initial residual = 0.000577561, Final residual = 2.7875e-09, No Iterations 1
GAMG:  Solving for p, Initial residual = 9.47697e-08, Final residual = 6.55379e-11, No Iterations 4
PIMPLE: Iteration 96
DILUPBiCGStab:  Solving for c, Initial residual = 0.000618769, Final residual = 2.70342e-09, No Iterations 1
GAMG:  Solving for p, Initial residual = 9.47697e-08, Final residual = 6.55379e-11, No Iterations 4
PIMPLE: Iteration 97
DILUPBiCGStab:  Solving for c, Initial residual = 0.000577561, Final residual = 2.7875e-09, No Iterations 1
GAMG:  Solving for p, Initial residual = 9.47697e-08, Final residual = 6.55378e-11, No Iterations 4
PIMPLE: Iteration 98
DILUPBiCGStab:  Solving for c, Initial residual = 0.000618769, Final residual = 2.70342e-09, No Iterations 1
GAMG:  Solving for p, Initial residual = 9.47697e-08, Final residual = 6.5538e-11, No Iterations 4
PIMPLE: Iteration 99
DILUPBiCGStab:  Solving for c, Initial residual = 0.000577561, Final residual = 2.7875e-09, No Iterations 1
GAMG:  Solving for p, Initial residual = 9.47697e-08, Final residual = 6.55378e-11, No Iterations 4
PIMPLE: Iteration 100
DILUPBiCGStab:  Solving for c, Initial residual = 0.000618769, Final residual = 2.70342e-09, No Iterations 1
GAMG:  Solving for p, Initial residual = 9.47697e-08, Final residual = 6.55378e-11, No Iterations 4
PIMPLE: Iteration 101
DILUPBiCGStab:  Solving for c, Initial residual = 0.000577561, Final residual = 2.7875e-09, No Iterations 1
GAMG:  Solving for p, Initial residual = 9.47697e-08, Final residual = 6.55379e-11, No Iterations 4
PIMPLE: Iteration 102
DILUPBiCGStab:  Solving for c, Initial residual = 0.000618769, Final residual = 2.70342e-09, No Iterations 1
GAMG:  Solving for p, Initial residual = 9.47697e-08, Final residual = 6.55381e-11, No Iterations 4
PIMPLE: Iteration 103
DILUPBiCGStab:  Solving for c, Initial residual = 0.000577561, Final residual = 2.7875e-09, No Iterations 1
GAMG:  Solving for p, Initial residual = 9.47697e-08, Final residual = 6.55378e-11, No Iterations 4
PIMPLE: Iteration 104
DILUPBiCGStab:  Solving for c, Initial residual = 0.000618769, Final residual = 2.70342e-09, No Iterations 1
GAMG:  Solving for p, Initial residual = 9.47697e-08, Final residual = 6.55379e-11, No Iterations 4
PIMPLE: Iteration 105
DILUPBiCGStab:  Solving for c, Initial residual = 0.000577561, Final residual = 2.7875e-09, No Iterations 1
GAMG:  Solving for p, Initial residual = 9.47697e-08, Final residual = 6.5538e-11, No Iterations 4
PIMPLE: Iteration 106
DILUPBiCGStab:  Solving for c, Initial residual = 0.000618769, Final residual = 2.70342e-09, No Iterations 1
GAMG:  Solving for p, Initial residual = 9.47697e-08, Final residual = 6.55377e-11, No Iterations 4
PIMPLE: Iteration 107
DILUPBiCGStab:  Solving for c, Initial residual = 0.000577561, Final residual = 2.7875e-09, No Iterations 1
GAMG:  Solving for p, Initial residual = 9.47697e-08, Final residual = 6.55382e-11, No Iterations 4
PIMPLE: Iteration 108
DILUPBiCGStab:  Solving for c, Initial residual = 0.000618769, Final residual = 2.70342e-09, No Iterations 1
GAMG:  Solving for p, Initial residual = 9.47697e-08, Final residual = 6.55379e-11, No Iterations 4
PIMPLE: Iteration 109
DILUPBiCGStab:  Solving for c, Initial residual = 0.000577561, Final residual = 2.7875e-09, No Iterations 1
GAMG:  Solving for p, Initial residual = 9.47697e-08, Final residual = 6.55376e-11, No Iterations 4
PIMPLE: Iteration 110
DILUPBiCGStab:  Solving for c, Initial residual = 0.000618769, Final residual = 2.70342e-09, No Iterations 1
GAMG:  Solving for p, Initial residual = 9.47697e-08, Final residual = 6.55378e-11, No Iterations 4
PIMPLE: Iteration 111
DILUPBiCGStab:  Solving for c, Initial residual = 0.000577561, Final residual = 2.7875e-09, No Iterations 1
GAMG:  Solving for p, Initial residual = 9.47697e-08, Final residual = 6.55378e-11, No Iterations 4
PIMPLE: Iteration 112
DILUPBiCGStab:  Solving for c, Initial residual = 0.000618769, Final residual = 2.70342e-09, No Iterations 1
GAMG:  Solving for p, Initial residual = 9.47697e-08, Final residual = 6.55379e-11, No Iterations 4
PIMPLE: Iteration 113
DILUPBiCGStab:  Solving for c, Initial residual = 0.000577561, Final residual = 2.7875e-09, No Iterations 1
GAMG:  Solving for p, Initial residual = 9.47697e-08, Final residual = 6.55377e-11, No Iterations 4
PIMPLE: Iteration 114
DILUPBiCGStab:  Solving for c, Initial residual = 0.000618769, Final residual = 2.70342e-09, No Iterations 1
GAMG:  Solving for p, Initial residual = 9.47697e-08, Final residual = 6.55379e-11, No Iterations 4
PIMPLE: Iteration 115
DILUPBiCGStab:  Solving for c, Initial residual = 0.000577561, Final residual = 2.7875e-09, No Iterations 1
GAMG:  Solving for p, Initial residual = 9.47697e-08, Final residual = 6.55375e-11, No Iterations 4
PIMPLE: Iteration 116
DILUPBiCGStab:  Solving for c, Initial residual = 0.000618769, Final residual = 2.70342e-09, No Iterations 1
GAMG:  Solving for p, Initial residual = 9.47697e-08, Final residual = 6.55379e-11, No Iterations 4
PIMPLE: Iteration 117
DILUPBiCGStab:  Solving for c, Initial residual = 0.000577561, Final residual = 2.7875e-09, No Iterations 1
GAMG:  Solving for p, Initial residual = 9.47697e-08, Final residual = 6.55378e-11, No Iterations 4
PIMPLE: Iteration 118
DILUPBiCGStab:  Solving for c, Initial residual = 0.000618769, Final residual = 2.70342e-09, No Iterations 1
GAMG:  Solving for p, Initial residual = 9.47697e-08, Final residual = 6.55377e-11, No Iterations 4
PIMPLE: Iteration 119
DILUPBiCGStab:  Solving for c, Initial residual = 0.000577561, Final residual = 2.7875e-09, No Iterations 1
GAMG:  Solving for p, Initial residual = 9.47697e-08, Final residual = 6.55377e-11, No Iterations 4
PIMPLE: Iteration 120
DILUPBiCGStab:  Solving for c, Initial residual = 0.000618769, Final residual = 2.70342e-09, No Iterations 1
GAMG:  Solving for p, Initial residual = 9.47697e-08, Final residual = 6.5538e-11, No Iterations 4
PIMPLE: Iteration 121
DILUPBiCGStab:  Solving for c, Initial residual = 0.000577561, Final residual = 2.7875e-09, No Iterations 1
GAMG:  Solving for p, Initial residual = 9.47697e-08, Final residual = 6.55377e-11, No Iterations 4
PIMPLE: Iteration 122
DILUPBiCGStab:  Solving for c, Initial residual = 0.000618769, Final residual = 2.70342e-09, No Iterations 1
GAMG:  Solving for p, Initial residual = 9.47697e-08, Final residual = 6.55375e-11, No Iterations 4
PIMPLE: Iteration 123
DILUPBiCGStab:  Solving for c, Initial residual = 0.000577561, Final residual = 2.7875e-09, No Iterations 1
GAMG:  Solving for p, Initial residual = 9.47697e-08, Final residual = 6.5538e-11, No Iterations 4
PIMPLE: Iteration 124
DILUPBiCGStab:  Solving for c, Initial residual = 0.000618769, Final residual = 2.70342e-09, No Iterations 1
GAMG:  Solving for p, Initial residual = 9.47697e-08, Final residual = 6.55378e-11, No Iterations 4
PIMPLE: Iteration 125
DILUPBiCGStab:  Solving for c, Initial residual = 0.000577561, Final residual = 2.7875e-09, No Iterations 1
GAMG:  Solving for p, Initial residual = 9.47697e-08, Final residual = 6.55379e-11, No Iterations 4
PIMPLE: Iteration 126
DILUPBiCGStab:  Solving for c, Initial residual = 0.000618769, Final residual = 2.70342e-09, No Iterations 1
GAMG:  Solving for p, Initial residual = 9.47697e-08, Final residual = 6.55377e-11, No Iterations 4
PIMPLE: Iteration 127
DILUPBiCGStab:  Solving for c, Initial residual = 0.000577561, Final residual = 2.7875e-09, No Iterations 1
GAMG:  Solving for p, Initial residual = 9.47697e-08, Final residual = 6.55378e-11, No Iterations 4
PIMPLE: Iteration 128
DILUPBiCGStab:  Solving for c, Initial residual = 0.000618769, Final residual = 2.70342e-09, No Iterations 1
GAMG:  Solving for p, Initial residual = 9.47697e-08, Final residual = 6.55378e-11, No Iterations 4
PIMPLE: Iteration 129
DILUPBiCGStab:  Solving for c, Initial residual = 0.000577561, Final residual = 2.7875e-09, No Iterations 1
GAMG:  Solving for p, Initial residual = 9.47697e-08, Final residual = 6.5538e-11, No Iterations 4
PIMPLE: Iteration 130
DILUPBiCGStab:  Solving for c, Initial residual = 0.000618769, Final residual = 2.70342e-09, No Iterations 1
GAMG:  Solving for p, Initial residual = 9.47697e-08, Final residual = 6.55378e-11, No Iterations 4
PIMPLE: Iteration 131
DILUPBiCGStab:  Solving for c, Initial residual = 0.000577561, Final residual = 2.7875e-09, No Iterations 1
GAMG:  Solving for p, Initial residual = 9.47697e-08, Final residual = 6.55378e-11, No Iterations 4
PIMPLE: Iteration 132
DILUPBiCGStab:  Solving for c, Initial residual = 0.000618769, Final residual = 2.70342e-09, No Iterations 1
GAMG:  Solving for p, Initial residual = 9.47697e-08, Final residual = 6.55382e-11, No Iterations 4
PIMPLE: Iteration 133
DILUPBiCGStab:  Solving for c, Initial residual = 0.000577561, Final residual = 2.7875e-09, No Iterations 1
GAMG:  Solving for p, Initial residual = 9.47697e-08, Final residual = 6.55377e-11, No Iterations 4
PIMPLE: Iteration 134
DILUPBiCGStab:  Solving for c, Initial residual = 0.000618769, Final residual = 2.70342e-09, No Iterations 1
GAMG:  Solving for p, Initial residual = 9.47697e-08, Final residual = 6.55381e-11, No Iterations 4
PIMPLE: Iteration 135
DILUPBiCGStab:  Solving for c, Initial residual = 0.000577561, Final residual = 2.7875e-09, No Iterations 1
[...]
PIMPLE: Iteration 8
DILUPBiCGStab:  Solving for c, Initial residual = 0.0027494, Final residual = 2.57857e-06, No Iterations 2
GAMG:  Solving for p, Initial residual = 1.95235e-06, Final residual = 8.13392e-10, No Iterations 7
PIMPLE: Iteration 9
DILUPBiCGStab:  Solving for c, Initial residual = 0.00431215, Final residual = 3.9806e-06, No Iterations 2
GAMG:  Solving for p, Initial residual = 1.95153e-06, Final residual = 8.13399e-10, No Iterations 7
PIMPLE: Iteration 10
DILUPBiCGStab:  Solving for c, Initial residual = 0.00274568, Final residual = 2.5772e-06, No Iterations 2
GAMG:  Solving for p, Initial residual = 1.95095e-06, Final residual = 8.13457e-10, No Iterations 7
PIMPLE: Iteration 11
DILUPBiCGStab:  Solving for c, Initial residual = 0.00430958, Final residual = 3.97961e-06, No Iterations 2
GAMG:  Solving for p, Initial residual = 1.95053e-06, Final residual = 8.13478e-10, No Iterations 7
PIMPLE: Iteration 12
DILUPBiCGStab:  Solving for c, Initial residual = 0.00274384, Final residual = 2.5765e-06, No Iterations 2
GAMG:  Solving for p, Initial residual = 1.95024e-06, Final residual = 8.13492e-10, No Iterations 7
PIMPLE: Iteration 13
DILUPBiCGStab:  Solving for c, Initial residual = 0.0043083, Final residual = 3.9791e-06, No Iterations 2
GAMG:  Solving for p, Initial residual = 1.95004e-06, Final residual = 8.13502e-10, No Iterations 7
PIMPLE: Iteration 14
DILUPBiCGStab:  Solving for c, Initial residual = 0.00274293, Final residual = 2.57617e-06, No Iterations 2
GAMG:  Solving for p, Initial residual = 1.94992e-06, Final residual = 8.13506e-10, No Iterations 7
PIMPLE: Iteration 15
DILUPBiCGStab:  Solving for c, Initial residual = 0.00430766, Final residual = 3.97885e-06, No Iterations 2
GAMG:  Solving for p, Initial residual = 1.94984e-06, Final residual = 8.13508e-10, No Iterations 7
PIMPLE: Iteration 16
DILUPBiCGStab:  Solving for c, Initial residual = 0.00274248, Final residual = 2.57601e-06, No Iterations 2
GAMG:  Solving for p, Initial residual = 1.94978e-06, Final residual = 8.13512e-10, No Iterations 7
PIMPLE: Iteration 17
DILUPBiCGStab:  Solving for c, Initial residual = 0.00430735, Final residual = 3.97874e-06, No Iterations 2
GAMG:  Solving for p, Initial residual = 1.94975e-06, Final residual = 8.13511e-10, No Iterations 7
PIMPLE: Iteration 18
DILUPBiCGStab:  Solving for c, Initial residual = 0.00274226, Final residual = 2.57594e-06, No Iterations 2
GAMG:  Solving for p, Initial residual = 1.94972e-06, Final residual = 8.13514e-10, No Iterations 7
PIMPLE: Iteration 19
DILUPBiCGStab:  Solving for c, Initial residual = 0.00430719, Final residual = 3.97868e-06, No Iterations 2
GAMG:  Solving for p, Initial residual = 1.94971e-06, Final residual = 8.13513e-10, No Iterations 7
PIMPLE: Iteration 20
DILUPBiCGStab:  Solving for c, Initial residual = 0.00274216, Final residual = 2.57591e-06, No Iterations 2
GAMG:  Solving for p, Initial residual = 1.9497e-06, Final residual = 8.13513e-10, No Iterations 7
PIMPLE: Iteration 21
DILUPBiCGStab:  Solving for c, Initial residual = 0.00430712, Final residual = 3.97866e-06, No Iterations 2
GAMG:  Solving for p, Initial residual = 1.94969e-06, Final residual = 8.13514e-10, No Iterations 7
PIMPLE: Iteration 22
DILUPBiCGStab:  Solving for c, Initial residual = 0.00274211, Final residual = 2.5759e-06, No Iterations 2
GAMG:  Solving for p, Initial residual = 1.94968e-06, Final residual = 8.13514e-10, No Iterations 7
PIMPLE: Iteration 23
DILUPBiCGStab:  Solving for c, Initial residual = 0.00430709, Final residual = 3.97865e-06, No Iterations 2
GAMG:  Solving for p, Initial residual = 1.94968e-06, Final residual = 8.13514e-10, No Iterations 7
PIMPLE: Iteration 24
DILUPBiCGStab:  Solving for c, Initial residual = 0.00274209, Final residual = 2.5759e-06, No Iterations 2
GAMG:  Solving for p, Initial residual = 1.94968e-06, Final residual = 8.13513e-10, No Iterations 7
PIMPLE: Iteration 25
DILUPBiCGStab:  Solving for c, Initial residual = 0.00430708, Final residual = 3.97865e-06, No Iterations 2
GAMG:  Solving for p, Initial residual = 1.94968e-06, Final residual = 8.13514e-10, No Iterations 7
PIMPLE: Iteration 26
DILUPBiCGStab:  Solving for c, Initial residual = 0.00274208, Final residual = 2.57589e-06, No Iterations 2
GAMG:  Solving for p, Initial residual = 1.94967e-06, Final residual = 8.13514e-10, No Iterations 7
PIMPLE: Iteration 27
DILUPBiCGStab:  Solving for c, Initial residual = 0.00430707, Final residual = 3.97864e-06, No Iterations 2
GAMG:  Solving for p, Initial residual = 1.94967e-06, Final residual = 8.13514e-10, No Iterations 7
PIMPLE: Iteration 28
DILUPBiCGStab:  Solving for c, Initial residual = 0.00274207, Final residual = 2.57589e-06, No Iterations 2
GAMG:  Solving for p, Initial residual = 1.94967e-06, Final residual = 8.13513e-10, No Iterations 7
PIMPLE: Iteration 29
DILUPBiCGStab:  Solving for c, Initial residual = 0.00430707, Final residual = 3.97864e-06, No Iterations 2
GAMG:  Solving for p, Initial residual = 1.94967e-06, Final residual = 8.13514e-10, No Iterations 7
PIMPLE: Iteration 30
DILUPBiCGStab:  Solving for c, Initial residual = 0.00274207, Final residual = 2.57589e-06, No Iterations 2
GAMG:  Solving for p, Initial residual = 1.94967e-06, Final residual = 8.13514e-10, No Iterations 7
PIMPLE: Iteration 31
DILUPBiCGStab:  Solving for c, Initial residual = 0.00430707, Final residual = 3.97864e-06, No Iterations 2
GAMG:  Solving for p, Initial residual = 1.94967e-06, Final residual = 8.13514e-10, No Iterations 7
PIMPLE: Iteration 32
DILUPBiCGStab:  Solving for c, Initial residual = 0.00274207, Final residual = 2.57589e-06, No Iterations 2
GAMG:  Solving for p, Initial residual = 1.94967e-06, Final residual = 8.13515e-10, No Iterations 7
PIMPLE: Iteration 33
DILUPBiCGStab:  Solving for c, Initial residual = 0.00430706, Final residual = 3.97864e-06, No Iterations 2
GAMG:  Solving for p, Initial residual = 1.94967e-06, Final residual = 8.13513e-10, No Iterations 7
PIMPLE: Iteration 34
DILUPBiCGStab:  Solving for c, Initial residual = 0.00274207, Final residual = 2.57589e-06, No Iterations 2
GAMG:  Solving for p, Initial residual = 1.94967e-06, Final residual = 8.13514e-10, No Iterations 7
PIMPLE: Iteration 35
DILUPBiCGStab:  Solving for c, Initial residual = 0.00430706, Final residual = 3.97864e-06, No Iterations 2
GAMG:  Solving for p, Initial residual = 1.94967e-06, Final residual = 8.13514e-10, No Iterations 7
PIMPLE: Iteration 36
DILUPBiCGStab:  Solving for c, Initial residual = 0.00274207, Final residual = 2.57589e-06, No Iterations 2
GAMG:  Solving for p, Initial residual = 1.94967e-06, Final residual = 8.13514e-10, No Iterations 7
PIMPLE: Iteration 37
DILUPBiCGStab:  Solving for c, Initial residual = 0.00430706, Final residual = 3.97864e-06, No Iterations 2
GAMG:  Solving for p, Initial residual = 1.94967e-06, Final residual = 8.13514e-10, No Iterations 7
PIMPLE: Iteration 38
DILUPBiCGStab:  Solving for c, Initial residual = 0.00274207, Final residual = 2.57589e-06, No Iterations 2
GAMG:  Solving for p, Initial residual = 1.94967e-06, Final residual = 8.13514e-10, No Iterations 7
PIMPLE: Iteration 39
DILUPBiCGStab:  Solving for c, Initial residual = 0.00430706, Final residual = 3.97864e-06, No Iterations 2
GAMG:  Solving for p, Initial residual = 1.94967e-06, Final residual = 8.13514e-10, No Iterations 7
PIMPLE: Iteration 40
DILUPBiCGStab:  Solving for c, Initial residual = 0.00274207, Final residual = 2.57589e-06, No Iterations 2
GAMG:  Solving for p, Initial residual = 1.94967e-06, Final residual = 8.13514e-10, No Iterations 7
PIMPLE: Iteration 41
DILUPBiCGStab:  Solving for c, Initial residual = 0.00430706, Final residual = 3.97864e-06, No Iterations 2
GAMG:  Solving for p, Initial residual = 1.94967e-06, Final residual = 8.13514e-10, No Iterations 7
PIMPLE: Iteration 42
DILUPBiCGStab:  Solving for c, Initial residual = 0.00274207, Final residual = 2.57589e-06, No Iterations 2
GAMG:  Solving for p, Initial residual = 1.94967e-06, Final residual = 8.13515e-10, No Iterations 7
PIMPLE: Iteration 43
DILUPBiCGStab:  Solving for c, Initial residual = 0.00430706, Final residual = 3.97864e-06, No Iterations 2
GAMG:  Solving for p, Initial residual = 1.94967e-06, Final residual = 8.13514e-10, No Iterations 7
PIMPLE: Iteration 44
DILUPBiCGStab:  Solving for c, Initial residual = 0.00274207, Final residual = 2.57589e-06, No Iterations 2
GAMG:  Solving for p, Initial residual = 1.94967e-06, Final residual = 8.13514e-10, No Iterations 7
PIMPLE: Iteration 45
DILUPBiCGStab:  Solving for c, Initial residual = 0.00430706, Final residual = 3.97864e-06, No Iterations 2
GAMG:  Solving for p, Initial residual = 1.94967e-06, Final residual = 8.13514e-10, No Iterations 7
PIMPLE: Iteration 46
DILUPBiCGStab:  Solving for c, Initial residual = 0.00274207, Final residual = 2.57589e-06, No Iterations 2
GAMG:  Solving for p, Initial residual = 1.94967e-06, Final residual = 8.13514e-10, No Iterations 7
PIMPLE: Iteration 47
DILUPBiCGStab:  Solving for c, Initial residual = 0.00430706, Final residual = 3.97864e-06, No Iterations 2
GAMG:  Solving for p, Initial residual = 1.94967e-06, Final residual = 8.13514e-10, No Iterations 7
PIMPLE: Iteration 48
DILUPBiCGStab:  Solving for c, Initial residual = 0.00274207, Final residual = 2.57589e-06, No Iterations 2
GAMG:  Solving for p, Initial residual = 1.94967e-06, Final residual = 8.13514e-10, No Iterations 7
PIMPLE: Iteration 49
DILUPBiCGStab:  Solving for c, Initial residual = 0.00430706, Final residual = 3.97864e-06, No Iterations 2
GAMG:  Solving for p, Initial residual = 1.94967e-06, Final residual = 8.13514e-10, No Iterations 7
PIMPLE: Iteration 50
DILUPBiCGStab:  Solving for c, Initial residual = 0.00274207, Final residual = 2.57589e-06, No Iterations 2
GAMG:  Solving for p, Initial residual = 1.94967e-06, Final residual = 8.13515e-10, No Iterations 7
PIMPLE: Iteration 51
DILUPBiCGStab:  Solving for c, Initial residual = 0.00430706, Final residual = 3.97864e-06, No Iterations 2
GAMG:  Solving for p, Initial residual = 1.94967e-06, Final residual = 8.13514e-10, No Iterations 7
PIMPLE: Iteration 52
DILUPBiCGStab:  Solving for c, Initial residual = 0.00274207, Final residual = 2.57589e-06, No Iterations 2
GAMG:  Solving for p, Initial residual = 1.94967e-06, Final residual = 8.13514e-10, No Iterations 7
PIMPLE: Iteration 53
DILUPBiCGStab:  Solving for c, Initial residual = 0.00430706, Final residual = 3.97864e-06, No Iterations 2
GAMG:  Solving for p, Initial residual = 1.94967e-06, Final residual = 8.13514e-10, No Iterations 7
PIMPLE: Iteration 54
DILUPBiCGStab:  Solving for c, Initial residual = 0.00274207, Final residual = 2.57589e-06, No Iterations 2
GAMG:  Solving for p, Initial residual = 1.94967e-06, Final residual = 8.13514e-10, No Iterations 7
PIMPLE: Iteration 55
DILUPBiCGStab:  Solving for c, Initial residual = 0.00430706, Final residual = 3.97864e-06, No Iterations 2
GAMG:  Solving for p, Initial residual = 1.94967e-06, Final residual = 8.13514e-10, No Iterations 7
PIMPLE: Iteration 56
DILUPBiCGStab:  Solving for c, Initial residual = 0.00274207, Final residual = 2.57589e-06, No Iterations 2
GAMG:  Solving for p, Initial residual = 1.94967e-06, Final residual = 8.13514e-10, No Iterations 7
PIMPLE: Iteration 57
DILUPBiCGStab:  Solving for c, Initial residual = 0.00430706, Final residual = 3.97864e-06, No Iterations 2
GAMG:  Solving for p, Initial residual = 1.94967e-06, Final residual = 8.13514e-10, No Iterations 7
PIMPLE: Iteration 58
DILUPBiCGStab:  Solving for c, Initial residual = 0.00274207, Final residual = 2.57589e-06, No Iterations 2
GAMG:  Solving for p, Initial residual = 1.94967e-06, Final residual = 8.13514e-10, No Iterations 7
PIMPLE: Iteration 59
DILUPBiCGStab:  Solving for c, Initial residual = 0.00430706, Final residual = 3.97864e-06, No Iterations 2
GAMG:  Solving for p, Initial residual = 1.94967e-06, Final residual = 8.13514e-10, No Iterations 7
PIMPLE: Iteration 60
DILUPBiCGStab:  Solving for c, Initial residual = 0.00274207, Final residual = 2.57589e-06, No Iterations 2
GAMG:  Solving for p, Initial residual = 1.94967e-06, Final residual = 8.13513e-10, No Iterations 7
PIMPLE: Iteration 61
DILUPBiCGStab:  Solving for c, Initial residual = 0.00430706, Final residual = 3.97864e-06, No Iterations 2
GAMG:  Solving for p, Initial residual = 1.94967e-06, Final residual = 8.13515e-10, No Iterations 7
PIMPLE: Iteration 62
DILUPBiCGStab:  Solving for c, Initial residual = 0.00274207, Final residual = 2.57589e-06, No Iterations 2
GAMG:  Solving for p, Initial residual = 1.94967e-06, Final residual = 8.13514e-10, No Iterations 7
PIMPLE: Iteration 63
DILUPBiCGStab:  Solving for c, Initial residual = 0.00430706, Final residual = 3.97864e-06, No Iterations 2
GAMG:  Solving for p, Initial residual = 1.94967e-06, Final residual = 8.13515e-10, No Iterations 7
PIMPLE: Iteration 64
DILUPBiCGStab:  Solving for c, Initial residual = 0.00274207, Final residual = 2.57589e-06, No Iterations 2
GAMG:  Solving for p, Initial residual = 1.94967e-06, Final residual = 8.13514e-10, No Iterations 7
PIMPLE: Iteration 65
DILUPBiCGStab:  Solving for c, Initial residual = 0.00430706, Final residual = 3.97864e-06, No Iterations 2
GAMG:  Solving for p, Initial residual = 1.94967e-06, Final residual = 8.13513e-10, No Iterations 7
PIMPLE: Iteration 66
DILUPBiCGStab:  Solving for c, Initial residual = 0.00274207, Final residual = 2.57589e-06, No Iterations 2
GAMG:  Solving for p, Initial residual = 1.94967e-06, Final residual = 8.13514e-10, No Iterations 7
PIMPLE: Iteration 67
DILUPBiCGStab:  Solving for c, Initial residual = 0.00430706, Final residual = 3.97864e-06, No Iterations 2
GAMG:  Solving for p, Initial residual = 1.94967e-06, Final residual = 8.13514e-10, No Iterations 7
PIMPLE: Iteration 68
DILUPBiCGStab:  Solving for c, Initial residual = 0.00274207, Final residual = 2.57589e-06, No Iterations 2
GAMG:  Solving for p, Initial residual = 1.94967e-06, Final residual = 8.13514e-10, No Iterations 7
PIMPLE: Iteration 69
DILUPBiCGStab:  Solving for c, Initial residual = 0.00430706, Final residual = 3.97864e-06, No Iterations 2
GAMG:  Solving for p, Initial residual = 1.94967e-06, Final residual = 8.13514e-10, No Iterations 7
PIMPLE: Iteration 70
DILUPBiCGStab:  Solving for c, Initial residual = 0.00274207, Final residual = 2.57589e-06, No Iterations 2
GAMG:  Solving for p, Initial residual = 1.94967e-06, Final residual = 8.13515e-10, No Iterations 7
PIMPLE: Iteration 71
DILUPBiCGStab:  Solving for c, Initial residual = 0.00430706, Final residual = 3.97864e-06, No Iterations 2
GAMG:  Solving for p, Initial residual = 1.94967e-06, Final residual = 8.13514e-10, No Iterations 7
PIMPLE: Iteration 72
DILUPBiCGStab:  Solving for c, Initial residual = 0.00274207, Final residual = 2.57589e-06, No Iterations 2
GAMG:  Solving for p, Initial residual = 1.94967e-06, Final residual = 8.13514e-10, No Iterations 7
PIMPLE: Iteration 73
DILUPBiCGStab:  Solving for c, Initial residual = 0.00430706, Final residual = 3.97864e-06, No Iterations 2
GAMG:  Solving for p, Initial residual = 1.94967e-06, Final residual = 8.13514e-10, No Iterations 7
PIMPLE: Iteration 74
DILUPBiCGStab:  Solving for c, Initial residual = 0.00274207, Final residual = 2.57589e-06, No Iterations 2
GAMG:  Solving for p, Initial residual = 1.94967e-06, Final residual = 8.13513e-10, No Iterations 7
PIMPLE: Iteration 75
DILUPBiCGStab:  Solving for c, Initial residual = 0.00430706, Final residual = 3.97864e-06, No Iterations 2
GAMG:  Solving for p, Initial residual = 1.94967e-06, Final residual = 8.13514e-10, No Iterations 7
PIMPLE: Iteration 76
DILUPBiCGStab:  Solving for c, Initial residual = 0.00274207, Final residual = 2.57589e-06, No Iterations 2
GAMG:  Solving for p, Initial residual = 1.94967e-06, Final residual = 8.13514e-10, No Iterations 7
PIMPLE: Iteration 77
DILUPBiCGStab:  Solving for c, Initial residual = 0.00430706, Final residual = 3.97864e-06, No Iterations 2
GAMG:  Solving for p, Initial residual = 1.94967e-06, Final residual = 8.13514e-10, No Iterations 7
PIMPLE: Iteration 78
DILUPBiCGStab:  Solving for c, Initial residual = 0.00274207, Final residual = 2.57589e-06, No Iterations 2
GAMG:  Solving for p, Initial residual = 1.94967e-06, Final residual = 8.13514e-10, No Iterations 7
PIMPLE: Iteration 79
DILUPBiCGStab:  Solving for c, Initial residual = 0.00430706, Final residual = 3.97864e-06, No Iterations 2
GAMG:  Solving for p, Initial residual = 1.94967e-06, Final residual = 8.13515e-10, No Iterations 7
PIMPLE: Iteration 80
DILUPBiCGStab:  Solving for c, Initial residual = 0.00274207, Final residual = 2.57589e-06, No Iterations 2
GAMG:  Solving for p, Initial residual = 1.94967e-06, Final residual = 8.13514e-10, No Iterations 7
PIMPLE: Iteration 81
DILUPBiCGStab:  Solving for c, Initial residual = 0.00430706, Final residual = 3.97864e-06, No Iterations 2
GAMG:  Solving for p, Initial residual = 1.94967e-06, Final residual = 8.13514e-10, No Iterations 7
PIMPLE: Iteration 82
DILUPBiCGStab:  Solving for c, Initial residual = 0.00274207, Final residual = 2.57589e-06, No Iterations 2
GAMG:  Solving for p, Initial residual = 1.94967e-06, Final residual = 8.13514e-10, No Iterations 7
PIMPLE: Iteration 83
DILUPBiCGStab:  Solving for c, Initial residual = 0.00430706, Final residual = 3.97864e-06, No Iterations 2
GAMG:  Solving for p, Initial residual = 1.94967e-06, Final residual = 8.13513e-10, No Iterations 7
PIMPLE: Iteration 84
DILUPBiCGStab:  Solving for c, Initial residual = 0.00274207, Final residual = 2.57589e-06, No Iterations 2
GAMG:  Solving for p, Initial residual = 1.94967e-06, Final residual = 8.13514e-10, No Iterations 7
PIMPLE: Iteration 85
DILUPBiCGStab:  Solving for c, Initial residual = 0.00430706, Final residual = 3.97864e-06, No Iterations 2
GAMG:  Solving for p, Initial residual = 1.94967e-06, Final residual = 8.13513e-10, No Iterations 7
PIMPLE: Iteration 86
DILUPBiCGStab:  Solving for c, Initial residual = 0.00274207, Final residual = 2.57589e-06, No Iterations 2
GAMG:  Solving for p, Initial residual = 1.94967e-06, Final residual = 8.13514e-10, No Iterations 7
PIMPLE: Iteration 87
DILUPBiCGStab:  Solving for c, Initial residual = 0.00430706, Final residual = 3.97864e-06, No Iterations 2
GAMG:  Solving for p, Initial residual = 1.94967e-06, Final residual = 8.13514e-10, No Iterations 7
PIMPLE: Iteration 88
DILUPBiCGStab:  Solving for c, Initial residual = 0.00274207, Final residual = 2.57589e-06, No Iterations 2
GAMG:  Solving for p, Initial residual = 1.94967e-06, Final residual = 8.13513e-10, No Iterations 7
PIMPLE: Iteration 89
DILUPBiCGStab:  Solving for c, Initial residual = 0.00430706, Final residual = 3.97864e-06, No Iterations 2
GAMG:  Solving for p, Initial residual = 1.94967e-06, Final residual = 8.13514e-10, No Iterations 7
PIMPLE: Iteration 90
DILUPBiCGStab:  Solving for c, Initial residual = 0.00274207, Final residual = 2.57589e-06, No Iterations 2
GAMG:  Solving for p, Initial residual = 1.94967e-06, Final residual = 8.13513e-10, No Iterations 7
PIMPLE: Iteration 91
DILUPBiCGStab:  Solving for c, Initial residual = 0.00430706, Final residual = 3.97864e-06, No Iterations 2
GAMG:  Solving for p, Initial residual = 1.94967e-06, Final residual = 8.13514e-10, No Iterations 7
PIMPLE: Iteration 92
DILUPBiCGStab:  Solving for c, Initial residual = 0.00274207, Final residual = 2.57589e-06, No Iterations 2
GAMG:  Solving for p, Initial residual = 1.94967e-06, Final residual = 8.13514e-10, No Iterations 7
PIMPLE: Iteration 93
DILUPBiCGStab:  Solving for c, Initial residual = 0.00430706, Final residual = 3.97864e-06, No Iterations 2
GAMG:  Solving for p, Initial residual = 1.94967e-06, Final residual = 8.13514e-10, No Iterations 7
PIMPLE: Iteration 94
DILUPBiCGStab:  Solving for c, Initial residual = 0.00274207, Final residual = 2.57589e-06, No Iterations 2
GAMG:  Solving for p, Initial residual = 1.94967e-06, Final residual = 8.13514e-10, No Iterations 7
PIMPLE: Iteration 95
